
     RDKit          3D

 74 77  0  0  0  0  0  0  0  0999 V2000
    2.3667   -2.2013    1.6261 C   0  0  0  0  0  0  0  0  0  0  0  0
    2.6125   -1.1469    0.5416 C   0  0  2  0  0  0  0  0  0  0  0  0
    3.9360   -0.3852    0.8311 C   0  0  0  0  0  0  0  0  0  0  0  0
    5.1955   -1.2433    0.6529 C   0  0  0  0  0  0  0  0  0  0  0  0
    6.4973   -0.4770    0.9219 C   0  0  0  0  0  0  0  0  0  0  0  0
    6.7716    0.7290    0.0104 C   0  0  2  0  0  0  0  0  0  0  0  0
    6.7791    0.3690   -1.4743 C   0  0  0  0  0  0  0  0  0  0  0  0
    8.1043    1.3362    0.3944 C   0  0  0  0  0  0  0  0  0  0  0  0
    9.1794    1.1639   -0.1542 O   0  0  0  0  0  0  0  0  0  0  0  0
    8.0127    2.1297    1.4803 O   0  0  0  0  0  0  0  0  0  0  0  0
    1.4255   -0.1435    0.4207 C   0  0  1  0  0  0  0  0  0  0  0  0
    1.6485    0.8854   -0.7302 C   0  0  0  0  0  0  0  0  0  0  0  0
    0.2672    1.2765   -1.2719 C   0  0  0  0  0  0  0  0  0  0  0  0
   -0.6999    0.6699   -0.2684 C   0  0  2  0  0  0  0  0  0  0  0  0
   -0.0155   -0.6730    0.1317 C   0  0  2  0  0  0  0  0  0  0  0  0
   -0.7899   -1.2393    1.3398 C   0  0  0  0  0  0  0  0  0  0  0  0
   -2.3015   -1.3809    1.0620 C   0  0  0  0  0  0  0  0  0  0  0  0
   -2.9277   -0.0554    0.5812 C   0  0  1  0  0  0  0  0  0  0  0  0
   -2.1721    0.4924   -0.6640 C   0  0  1  0  0  0  0  0  0  0  0  0
   -2.8358    1.7439   -1.2708 C   0  0  0  0  0  0  0  0  0  0  0  0
   -3.9393    2.3807   -0.4328 C   0  0  0  0  0  0  0  0  0  0  0  0
   -4.9135    1.4166    0.2702 C   0  0  2  0  0  0  0  0  0  0  0  0
   -4.4655   -0.0728    0.3303 C   0  0  2  0  0  0  0  0  0  0  0  0
   -5.2526   -0.7151    1.5044 C   0  0  0  0  0  0  0  0  0  0  0  0
   -6.7050   -0.2337    1.6507 C   0  0  0  0  0  0  0  0  0  0  0  0
   -7.2540    0.5329    0.4620 C   0  0  0  0  0  0  0  0  0  0  0  0
   -8.4232    0.3885    0.1010 O   0  0  0  0  0  0  0  0  0  0  0  0
   -6.3566    1.5501   -0.2168 C   0  0  0  0  0  0  0  0  0  0  0  0
   -4.8078   -0.8744   -0.9542 C   0  0  0  0  0  0  0  0  0  0  0  0
    0.0107   -1.7264   -1.0053 C   0  0  0  0  0  0  0  0  0  0  0  0
    3.2437   -2.8305    1.7969 H   0  0  0  0  0  0  0  0  0  0  0  0
    2.0990   -1.7344    2.5796 H   0  0  0  0  0  0  0  0  0  0  0  0
    1.5688   -2.8880    1.3376 H   0  0  0  0  0  0  0  0  0  0  0  0
    2.7319   -1.6671   -0.4172 H   0  0  0  0  0  0  0  0  0  0  0  0
    3.9099    0.0235    1.8491 H   0  0  0  0  0  0  0  0  0  0  0  0
    4.0164    0.4689    0.1537 H   0  0  0  0  0  0  0  0  0  0  0  0
    5.1737   -2.0901    1.3463 H   0  0  0  0  0  0  0  0  0  0  0  0
    5.2141   -1.6716   -0.3556 H   0  0  0  0  0  0  0  0  0  0  0  0
    6.4969   -0.1443    1.9684 H   0  0  0  0  0  0  0  0  0  0  0  0
    7.3322   -1.1860    0.8387 H   0  0  0  0  0  0  0  0  0  0  0  0
    6.0128    1.5064    0.1604 H   0  0  0  0  0  0  0  0  0  0  0  0
    7.4671   -0.4583   -1.6804 H   0  0  0  0  0  0  0  0  0  0  0  0
    5.7815    0.0782   -1.8176 H   0  0  0  0  0  0  0  0  0  0  0  0
    7.0996    1.2233   -2.0812 H   0  0  0  0  0  0  0  0  0  0  0  0
    8.9309    2.4426    1.6214 H   0  0  0  0  0  0  0  0  0  0  0  0
    1.3883    0.4270    1.3615 H   0  0  0  0  0  0  0  0  0  0  0  0
    2.1701    1.7708   -0.3492 H   0  0  0  0  0  0  0  0  0  0  0  0
    2.2553    0.4687   -1.5422 H   0  0  0  0  0  0  0  0  0  0  0  0
    0.1155    0.8685   -2.2773 H   0  0  0  0  0  0  0  0  0  0  0  0
    0.1704    2.3646   -1.3392 H   0  0  0  0  0  0  0  0  0  0  0  0
   -0.6888    1.3414    0.6063 H   0  0  0  0  0  0  0  0  0  0  0  0
   -0.4107   -2.2211    1.6349 H   0  0  0  0  0  0  0  0  0  0  0  0
   -0.6538   -0.5814    2.2079 H   0  0  0  0  0  0  0  0  0  0  0  0
   -2.4706   -2.1760    0.3289 H   0  0  0  0  0  0  0  0  0  0  0  0
   -2.7806   -1.7116    1.9902 H   0  0  0  0  0  0  0  0  0  0  0  0
   -2.7577    0.6524    1.4088 H   0  0  0  0  0  0  0  0  0  0  0  0
   -2.2064   -0.2626   -1.4581 H   0  0  0  0  0  0  0  0  0  0  0  0
   -2.0953    2.5129   -1.5136 H   0  0  0  0  0  0  0  0  0  0  0  0
   -3.2726    1.4653   -2.2387 H   0  0  0  0  0  0  0  0  0  0  0  0
   -3.4441    2.9780    0.3460 H   0  0  0  0  0  0  0  0  0  0  0  0
   -4.4868    3.1073   -1.0456 H   0  0  0  0  0  0  0  0  0  0  0  0
   -4.9289    1.7796    1.3119 H   0  0  0  0  0  0  0  0  0  0  0  0
   -5.2429   -1.8090    1.4108 H   0  0  0  0  0  0  0  0  0  0  0  0
   -4.7460   -0.5007    2.4550 H   0  0  0  0  0  0  0  0  0  0  0  0
   -7.3543   -1.0953    1.8431 H   0  0  0  0  0  0  0  0  0  0  0  0
   -6.7864    0.4297    2.5203 H   0  0  0  0  0  0  0  0  0  0  0  0
   -6.7405    2.5497    0.0149 H   0  0  0  0  0  0  0  0  0  0  0  0
   -6.4183    1.3966   -1.2996 H   0  0  0  0  0  0  0  0  0  0  0  0
   -4.5165   -0.3522   -1.8684 H   0  0  0  0  0  0  0  0  0  0  0  0
   -4.3094   -1.8493   -0.9554 H   0  0  0  0  0  0  0  0  0  0  0  0
   -5.8784   -1.0833   -1.0447 H   0  0  0  0  0  0  0  0  0  0  0  0
    0.4818   -2.6552   -0.6682 H   0  0  0  0  0  0  0  0  0  0  0  0
    0.5710   -1.3846   -1.8809 H   0  0  0  0  0  0  0  0  0  0  0  0
   -0.9883   -1.9992   -1.3542 H   0  0  0  0  0  0  0  0  0  0  0  0
  1  2  1  0
  2  3  1  0
  3  4  1  0
  4  5  1  0
  5  6  1  0
  6  7  1  0
  6  8  1  0
  8  9  2  0
  8 10  1  0
  2 11  1  0
 11 12  1  0
 12 13  1  0
 13 14  1  0
 14 15  1  0
 15 16  1  0
 16 17  1  0
 17 18  1  0
 18 19  1  0
 19 20  1  0
 20 21  1  0
 21 22  1  0
 22 23  1  0
 23 24  1  0
 24 25  1  0
 25 26  1  0
 26 27  2  0
 26 28  1  0
 23 29  1  6
 15 30  1  6
 15 11  1  0
 19 14  1  0
 23 18  1  0
 28 22  1  0
  1 31  1  0
  1 32  1  0
  1 33  1  0
  2 34  1  6
  3 35  1  0
  3 36  1  0
  4 37  1  0
  4 38  1  0
  5 39  1  0
  5 40  1  0
  6 41  1  6
  7 42  1  0
  7 43  1  0
  7 44  1  0
 10 45  1  0
 11 46  1  1
 12 47  1  0
 12 48  1  0
 13 49  1  0
 13 50  1  0
 14 51  1  1
 16 52  1  0
 16 53  1  0
 17 54  1  0
 17 55  1  0
 18 56  1  1
 19 57  1  6
 20 58  1  0
 20 59  1  0
 21 60  1  0
 21 61  1  0
 22 62  1  1
 24 63  1  0
 24 64  1  0
 25 65  1  0
 25 66  1  0
 28 67  1  0
 28 68  1  0
 29 69  1  0
 29 70  1  0
 29 71  1  0
 30 72  1  0
 30 73  1  0
 30 74  1  0
M  END
$$$$
