
     RDKit          3D

 37 42  0  0  0  0  0  0  0  0999 V2000
   -4.2311   -0.8245   -0.7646 C   0  0  0  0  0  0  0  0  0  0  0  0
   -2.8638   -0.4766   -0.5672 O   0  0  0  0  0  0  0  0  0  0  0  0
   -1.8544   -1.3573   -0.1533 C   0  0  0  0  0  0  0  0  0  0  0  0
   -2.1461   -2.7231    0.0377 C   0  0  0  0  0  0  0  0  0  0  0  0
   -1.1331   -3.6512    0.2495 C   0  0  0  0  0  0  0  0  0  0  0  0
    0.1966   -3.2526    0.2365 C   0  0  0  0  0  0  0  0  0  0  0  0
    0.5272   -1.8991    0.0833 C   0  0  0  0  0  0  0  0  0  0  0  0
   -0.5132   -0.8973   -0.0098 C   0  0  0  0  0  0  0  0  0  0  0  0
   -0.1324    0.5056   -0.0257 C   0  0  0  0  0  0  0  0  0  0  0  0
   -0.9819    1.6246    0.1539 C   0  0  0  0  0  0  0  0  0  0  0  0
   -2.3230    1.6748    0.4927 O   0  0  0  0  0  0  0  0  0  0  0  0
   -2.7351    3.0417    0.5898 C   0  0  0  0  0  0  0  0  0  0  0  0
   -1.5518    3.7995    0.3287 O   0  0  0  0  0  0  0  0  0  0  0  0
   -0.5180    2.9146    0.0903 C   0  0  0  0  0  0  0  0  0  0  0  0
    0.8239    3.2297   -0.1176 C   0  0  0  0  0  0  0  0  0  0  0  0
    1.7404    2.1704   -0.2093 C   0  0  0  0  0  0  0  0  0  0  0  0
    1.2451    0.8373   -0.1493 C   0  0  0  0  0  0  0  0  0  0  0  0
    2.1656   -0.1708   -0.1553 C   0  0  0  0  0  0  0  0  0  0  0  0
    1.8683   -1.4850   -0.0068 C   0  0  0  0  0  0  0  0  0  0  0  0
    3.1101   -2.1316    0.0052 C   0  0  0  0  0  0  0  0  0  0  0  0
    3.3116   -3.3695    0.1160 O   0  0  0  0  0  0  0  0  0  0  0  0
    4.1051   -1.1574   -0.1250 C   0  0  0  0  0  0  0  0  0  0  0  0
    5.3465   -1.3720   -0.1399 O   0  0  0  0  0  0  0  0  0  0  0  0
    3.5460    0.0654   -0.2210 N   0  0  0  0  0  0  0  0  0  0  0  0
    4.0508    1.3217   -0.3077 C   0  0  0  0  0  0  0  0  0  0  0  0
    3.1410    2.4044   -0.3080 C   0  0  0  0  0  0  0  0  0  0  0  0
   -4.3192   -1.5959   -1.5585 H   0  0  0  0  0  0  0  0  0  0  0  0
   -4.6719   -1.1953    0.1848 H   0  0  0  0  0  0  0  0  0  0  0  0
   -4.7903    0.0783   -1.0847 H   0  0  0  0  0  0  0  0  0  0  0  0
   -3.1612   -3.0906   -0.0177 H   0  0  0  0  0  0  0  0  0  0  0  0
   -1.3797   -4.6978    0.3759 H   0  0  0  0  0  0  0  0  0  0  0  0
    0.9578   -4.0112    0.3465 H   0  0  0  0  0  0  0  0  0  0  0  0
   -3.1121    3.2570    1.6115 H   0  0  0  0  0  0  0  0  0  0  0  0
   -3.5089    3.2633   -0.1747 H   0  0  0  0  0  0  0  0  0  0  0  0
    1.1477    4.2628   -0.1405 H   0  0  0  0  0  0  0  0  0  0  0  0
    5.1190    1.4913   -0.3522 H   0  0  0  0  0  0  0  0  0  0  0  0
    3.5246    3.4162   -0.3540 H   0  0  0  0  0  0  0  0  0  0  0  0
  1  2  1  0
  2  3  1  0
  3  4  2  0
  4  5  1  0
  5  6  2  0
  6  7  1  0
  7  8  2  0
  8  9  1  0
  9 10  2  0
 10 11  1  0
 11 12  1  0
 12 13  1  0
 13 14  1  0
 14 15  2  0
 15 16  1  0
 16 17  2  0
 17 18  1  0
 18 19  2  0
 19 20  1  0
 20 21  2  0
 20 22  1  0
 22 23  2  0
 22 24  1  0
 24 25  1  0
 25 26  2  0
  8  3  1  0
 17  9  1  0
 24 18  1  0
 19  7  1  0
 14 10  1  0
 26 16  1  0
  1 27  1  0
  1 28  1  0
  1 29  1  0
  4 30  1  0
  5 31  1  0
  6 32  1  0
 12 33  1  0
 12 34  1  0
 15 35  1  0
 25 36  1  0
 26 37  1  0
M  END
$$$$
