
     RDKit          3D

 41 40  0  0  0  0  0  0  0  0999 V2000
   10.0433    0.9634   -3.1433 O   0  0  0  0  0  0  0  0  0  0  0  0
   10.1775    1.7969   -2.0230 C   0  0  0  0  0  0  0  0  0  0  0  0
    9.7878    1.0564   -0.7422 C   0  0  0  0  0  0  0  0  0  0  0  0
    8.3772    0.6516   -0.7773 C   0  0  0  0  0  0  0  0  0  0  0  0
    7.2190    0.3189   -0.8064 C   0  0  0  0  0  0  0  0  0  0  0  0
    5.8627   -0.0705   -0.8413 C   0  0  0  0  0  0  0  0  0  0  0  0
    4.7046   -0.4029   -0.8713 C   0  0  0  0  0  0  0  0  0  0  0  0
    3.3482   -0.7922   -0.9064 C   0  0  0  0  0  0  0  0  0  0  0  0
    2.1901   -1.1245   -0.9363 C   0  0  0  0  0  0  0  0  0  0  0  0
    0.8337   -1.5135   -0.9711 C   0  0  0  0  0  0  0  0  0  0  0  0
   -0.3248   -1.8453   -1.0003 C   0  0  0  0  0  0  0  0  0  0  0  0
   -1.7349   -2.2484   -1.0351 C   0  0  0  0  0  0  0  0  0  0  0  0
   -2.4846   -1.6743    0.1699 C   0  0  0  0  0  0  0  0  0  0  0  0
   -3.9670   -2.0741    0.1350 C   0  0  0  0  0  0  0  0  0  0  0  0
   -4.7255   -1.6835    1.4166 C   0  0  0  0  0  0  0  0  0  0  0  0
   -4.7631   -0.1742    1.7180 C   0  0  0  0  0  0  0  0  0  0  0  0
   -5.4796    0.6376    0.6253 C   0  0  0  0  0  0  0  0  0  0  0  0
   -5.6269    2.1171    1.0056 C   0  0  0  0  0  0  0  0  0  0  0  0
   -6.6108    2.3115    2.1183 C   0  0  0  0  0  0  0  0  0  0  0  0
   -7.8477    2.2524    1.8848 O   0  0  0  0  0  0  0  0  0  0  0  0
   -6.1575    2.5300    3.4154 O   0  0  0  0  0  0  0  0  0  0  0  0
   10.8114    0.3345   -3.1231 H   0  0  0  0  0  0  0  0  0  0  0  0
    9.5249    2.6867   -2.1553 H   0  0  0  0  0  0  0  0  0  0  0  0
   11.2267    2.1607   -1.9385 H   0  0  0  0  0  0  0  0  0  0  0  0
    9.9464    1.7236    0.1312 H   0  0  0  0  0  0  0  0  0  0  0  0
   10.4240    0.1547   -0.6169 H   0  0  0  0  0  0  0  0  0  0  0  0
   -2.1889   -1.8759   -1.9782 H   0  0  0  0  0  0  0  0  0  0  0  0
   -1.7877   -3.3580   -1.0242 H   0  0  0  0  0  0  0  0  0  0  0  0
   -2.0203   -2.0530    1.1075 H   0  0  0  0  0  0  0  0  0  0  0  0
   -2.3980   -0.5662    0.1496 H   0  0  0  0  0  0  0  0  0  0  0  0
   -4.0383   -3.1789    0.0280 H   0  0  0  0  0  0  0  0  0  0  0  0
   -4.4603   -1.6309   -0.7558 H   0  0  0  0  0  0  0  0  0  0  0  0
   -5.7690   -2.0595    1.3380 H   0  0  0  0  0  0  0  0  0  0  0  0
   -4.2593   -2.2045    2.2812 H   0  0  0  0  0  0  0  0  0  0  0  0
   -5.3023   -0.0437    2.6808 H   0  0  0  0  0  0  0  0  0  0  0  0
   -3.7341    0.2150    1.8688 H   0  0  0  0  0  0  0  0  0  0  0  0
   -4.8866    0.5908   -0.3124 H   0  0  0  0  0  0  0  0  0  0  0  0
   -6.4820    0.2014    0.4195 H   0  0  0  0  0  0  0  0  0  0  0  0
   -4.6392    2.5348    1.2984 H   0  0  0  0  0  0  0  0  0  0  0  0
   -5.9785    2.6846    0.1169 H   0  0  0  0  0  0  0  0  0  0  0  0
   -6.8105    2.6512    4.1803 H   0  0  0  0  0  0  0  0  0  0  0  0
  1  2  1  0
  2  3  1  0
  3  4  1  0
  4  5  3  0
  5  6  1  0
  6  7  3  0
  7  8  1  0
  8  9  3  0
  9 10  1  0
 10 11  3  0
 11 12  1  0
 12 13  1  0
 13 14  1  0
 14 15  1  0
 15 16  1  0
 16 17  1  0
 17 18  1  0
 18 19  1  0
 19 20  2  0
 19 21  1  0
  1 22  1  0
  2 23  1  0
  2 24  1  0
  3 25  1  0
  3 26  1  0
 12 27  1  0
 12 28  1  0
 13 29  1  0
 13 30  1  0
 14 31  1  0
 14 32  1  0
 15 33  1  0
 15 34  1  0
 16 35  1  0
 16 36  1  0
 17 37  1  0
 17 38  1  0
 18 39  1  0
 18 40  1  0
 21 41  1  0
M  END
$$$$
