
     RDKit          3D

 38 38  0  0  0  0  0  0  0  0999 V2000
    5.9716   -0.5051   -0.1211 C   0  0  0  0  0  0  0  0  0  0  0  0
    5.0044    0.3776    0.6677 C   0  0  0  0  0  0  0  0  0  0  0  0
    3.5516   -0.1188    0.5981 C   0  0  0  0  0  0  0  0  0  0  0  0
    2.9103    0.1288   -0.7784 C   0  0  0  0  0  0  0  0  0  0  0  0
    1.4596   -0.3753   -0.8545 C   0  0  0  0  0  0  0  0  0  0  0  0
    0.4741    0.5339   -0.0972 C   0  0  0  0  0  0  0  0  0  0  0  0
   -0.9881    0.0597   -0.2453 C   0  0  0  0  0  0  0  0  0  0  0  0
   -1.9124    0.8576    0.6991 C   0  0  0  0  0  0  0  0  0  0  0  0
   -3.3192    0.3126    0.6987 C   0  0  0  0  0  0  0  0  0  0  0  0
   -4.3167    0.9146   -0.0871 C   0  0  0  0  0  0  0  0  0  0  0  0
   -5.6123    0.3889   -0.1047 C   0  0  0  0  0  0  0  0  0  0  0  0
   -5.9198   -0.7425    0.6559 C   0  0  0  0  0  0  0  0  0  0  0  0
   -4.9314   -1.3518    1.4337 C   0  0  0  0  0  0  0  0  0  0  0  0
   -3.6345   -0.8295    1.4540 C   0  0  0  0  0  0  0  0  0  0  0  0
   -1.4545    0.1764   -1.6769 C   0  0  0  0  0  0  0  0  0  0  0  0
   -1.4874    1.2604   -2.2389 O   0  0  0  0  0  0  0  0  0  0  0  0
    5.7787   -0.4271   -1.2107 H   0  0  0  0  0  0  0  0  0  0  0  0
    7.0132   -0.1704    0.0684 H   0  0  0  0  0  0  0  0  0  0  0  0
    5.8790   -1.5653    0.1971 H   0  0  0  0  0  0  0  0  0  0  0  0
    5.3247    0.3757    1.7322 H   0  0  0  0  0  0  0  0  0  0  0  0
    5.0700    1.4247    0.3000 H   0  0  0  0  0  0  0  0  0  0  0  0
    3.5117   -1.2016    0.8482 H   0  0  0  0  0  0  0  0  0  0  0  0
    2.9764    0.4276    1.3742 H   0  0  0  0  0  0  0  0  0  0  0  0
    3.4925   -0.4138   -1.5526 H   0  0  0  0  0  0  0  0  0  0  0  0
    2.9469    1.2121   -1.0273 H   0  0  0  0  0  0  0  0  0  0  0  0
    1.1710   -0.4090   -1.9272 H   0  0  0  0  0  0  0  0  0  0  0  0
    1.3992   -1.4130   -0.4592 H   0  0  0  0  0  0  0  0  0  0  0  0
    0.7384    0.5264    0.9812 H   0  0  0  0  0  0  0  0  0  0  0  0
    0.5691    1.5804   -0.4628 H   0  0  0  0  0  0  0  0  0  0  0  0
   -1.0343   -1.0123    0.0510 H   0  0  0  0  0  0  0  0  0  0  0  0
   -1.9138    1.9328    0.4123 H   0  0  0  0  0  0  0  0  0  0  0  0
   -1.5164    0.8070    1.7374 H   0  0  0  0  0  0  0  0  0  0  0  0
   -4.0909    1.7875   -0.6870 H   0  0  0  0  0  0  0  0  0  0  0  0
   -6.3775    0.8572   -0.7102 H   0  0  0  0  0  0  0  0  0  0  0  0
   -6.9229   -1.1487    0.6403 H   0  0  0  0  0  0  0  0  0  0  0  0
   -5.1695   -2.2305    2.0190 H   0  0  0  0  0  0  0  0  0  0  0  0
   -2.8756   -1.3146    2.0556 H   0  0  0  0  0  0  0  0  0  0  0  0
   -1.7650   -0.7129   -2.2153 H   0  0  0  0  0  0  0  0  0  0  0  0
  1  2  1  0
  2  3  1  0
  3  4  1  0
  4  5  1  0
  5  6  1  0
  6  7  1  0
  7  8  1  0
  8  9  1  0
  9 10  2  0
 10 11  1  0
 11 12  2  0
 12 13  1  0
 13 14  2  0
  7 15  1  0
 15 16  2  0
 14  9  1  0
  1 17  1  0
  1 18  1  0
  1 19  1  0
  2 20  1  0
  2 21  1  0
  3 22  1  0
  3 23  1  0
  4 24  1  0
  4 25  1  0
  5 26  1  0
  5 27  1  0
  6 28  1  0
  6 29  1  0
  7 30  1  0
  8 31  1  0
  8 32  1  0
 10 33  1  0
 11 34  1  0
 12 35  1  0
 13 36  1  0
 14 37  1  0
 15 38  1  0
M  END
$$$$
