
     RDKit          3D

 45 46  0  0  0  0  0  0  0  0999 V2000
   -6.0083    0.2200    1.0140 C   0  0  0  0  0  0  0  0  0  0  0  0
   -4.6567    0.0923    0.3834 C   0  0  0  0  0  0  0  0  0  0  0  0
   -3.6597   -0.5571    1.0096 C   0  0  0  0  0  0  0  0  0  0  0  0
   -2.2659   -0.7157    0.4026 C   0  0  0  0  0  0  0  0  0  0  0  0
   -1.5620    0.6396    0.2774 C   0  0  0  0  0  0  0  0  0  0  0  0
   -2.0089    1.8628    0.7948 C   0  0  0  0  0  0  0  0  0  0  0  0
   -1.1238    2.8495    0.5439 N   0  0  0  0  0  0  0  0  0  0  0  0
   -0.1027    2.2767   -0.1085 C   0  0  0  0  0  0  0  0  0  0  0  0
   -0.3171    0.9313   -0.2841 C   0  0  0  0  0  0  0  0  0  0  0  0
    0.6503    0.1256   -0.8955 C   0  0  0  0  0  0  0  0  0  0  0  0
    1.8474    0.7279   -1.3434 C   0  0  0  0  0  0  0  0  0  0  0  0
    2.9080   -0.1089   -2.0109 C   0  0  0  0  0  0  0  0  0  0  0  0
    3.3997   -1.2106   -1.1035 C   0  0  0  0  0  0  0  0  0  0  0  0
    4.2116   -1.0201   -0.0404 C   0  0  0  0  0  0  0  0  0  0  0  0
    4.6238   -2.2194    0.7734 C   0  0  0  0  0  0  0  0  0  0  0  0
    4.7151    0.3504    0.3452 C   0  0  0  0  0  0  0  0  0  0  0  0
    2.0381    2.1212   -1.1772 C   0  0  0  0  0  0  0  0  0  0  0  0
    1.0605    2.9052   -0.5459 C   0  0  0  0  0  0  0  0  0  0  0  0
   -1.4396   -1.6221    1.3371 C   0  0  0  0  0  0  0  0  0  0  0  0
   -2.4093   -1.3974   -0.9783 C   0  0  0  0  0  0  0  0  0  0  0  0
   -5.9246    0.7555    1.9833 H   0  0  0  0  0  0  0  0  0  0  0  0
   -6.4434   -0.7874    1.1836 H   0  0  0  0  0  0  0  0  0  0  0  0
   -6.6819    0.7939    0.3438 H   0  0  0  0  0  0  0  0  0  0  0  0
   -4.4904    0.5494   -0.5875 H   0  0  0  0  0  0  0  0  0  0  0  0
   -3.8632   -0.9920    1.9863 H   0  0  0  0  0  0  0  0  0  0  0  0
   -2.9270    2.0260    1.3427 H   0  0  0  0  0  0  0  0  0  0  0  0
   -1.2106    3.8518    0.8240 H   0  0  0  0  0  0  0  0  0  0  0  0
    0.5146   -0.9370   -1.0108 H   0  0  0  0  0  0  0  0  0  0  0  0
    3.7640    0.5090   -2.3571 H   0  0  0  0  0  0  0  0  0  0  0  0
    2.4624   -0.5697   -2.9185 H   0  0  0  0  0  0  0  0  0  0  0  0
    3.0742   -2.2210   -1.3399 H   0  0  0  0  0  0  0  0  0  0  0  0
    5.1750   -2.9378    0.1303 H   0  0  0  0  0  0  0  0  0  0  0  0
    5.2813   -1.9355    1.6212 H   0  0  0  0  0  0  0  0  0  0  0  0
    3.7223   -2.7197    1.1865 H   0  0  0  0  0  0  0  0  0  0  0  0
    5.2478    0.8187   -0.5085 H   0  0  0  0  0  0  0  0  0  0  0  0
    3.8656    0.9925    0.6544 H   0  0  0  0  0  0  0  0  0  0  0  0
    5.4246    0.2972    1.1968 H   0  0  0  0  0  0  0  0  0  0  0  0
    2.9491    2.5943   -1.5214 H   0  0  0  0  0  0  0  0  0  0  0  0
    1.2109    3.9669   -0.3983 H   0  0  0  0  0  0  0  0  0  0  0  0
   -1.3300   -1.1505    2.3381 H   0  0  0  0  0  0  0  0  0  0  0  0
   -1.9383   -2.6074    1.4662 H   0  0  0  0  0  0  0  0  0  0  0  0
   -0.4236   -1.8074    0.9332 H   0  0  0  0  0  0  0  0  0  0  0  0
   -2.7943   -0.6818   -1.7357 H   0  0  0  0  0  0  0  0  0  0  0  0
   -1.4504   -1.8044   -1.3488 H   0  0  0  0  0  0  0  0  0  0  0  0
   -3.1146   -2.2549   -0.9169 H   0  0  0  0  0  0  0  0  0  0  0  0
  1  2  1  0
  2  3  2  0
  3  4  1  0
  4  5  1  0
  5  6  2  0
  6  7  1  0
  7  8  1  0
  8  9  2  0
  9 10  1  0
 10 11  2  0
 11 12  1  0
 12 13  1  0
 13 14  2  3
 14 15  1  0
 14 16  1  0
 11 17  1  0
 17 18  2  0
  4 19  1  0
  4 20  1  0
  9  5  1  0
 18  8  1  0
  1 21  1  0
  1 22  1  0
  1 23  1  0
  2 24  1  0
  3 25  1  0
  6 26  1  0
  7 27  1  0
 10 28  1  0
 12 29  1  0
 12 30  1  0
 13 31  1  0
 15 32  1  0
 15 33  1  0
 15 34  1  0
 16 35  1  0
 16 36  1  0
 16 37  1  0
 17 38  1  0
 18 39  1  0
 19 40  1  0
 19 41  1  0
 19 42  1  0
 20 43  1  0
 20 44  1  0
 20 45  1  0
M  END
$$$$
