
     RDKit          3D

 63 63  0  0  0  0  0  0  0  0999 V2000
   -6.5254    1.5884   -2.5912 C   0  0  0  0  0  0  0  0  0  0  0  0
   -7.1746    1.5546   -1.2110 C   0  0  0  0  0  0  0  0  0  0  0  0
   -7.0566    0.1639   -0.5782 C   0  0  0  0  0  0  0  0  0  0  0  0
   -7.6821    0.1487    0.7935 C   0  0  0  0  0  0  0  0  0  0  0  0
   -7.0407    0.4819    1.9294 C   0  0  0  0  0  0  0  0  0  0  0  0
   -5.5767    0.8319    2.0134 C   0  0  0  0  0  0  0  0  0  0  0  0
   -4.7246   -0.4323    2.1744 C   0  0  0  0  0  0  0  0  0  0  0  0
   -3.2319   -0.0862    2.2249 C   0  0  0  0  0  0  0  0  0  0  0  0
   -2.3775   -1.3541    2.3716 C   0  0  0  0  0  0  0  0  0  0  0  0
   -0.8888   -1.0519    2.6235 C   0  0  0  0  0  0  0  0  0  0  0  0
   -0.1843   -0.2500    1.5132 C   0  0  0  0  0  0  0  0  0  0  0  0
   -0.1102   -1.0105    0.1783 C   0  0  0  0  0  0  0  0  0  0  0  0
    0.5632   -0.1959   -0.9421 C   0  0  0  0  0  0  0  0  0  0  0  0
    2.0267    0.2051   -0.6799 C   0  0  0  0  0  0  0  0  0  0  0  0
    2.9567   -1.0050   -0.4892 C   0  0  0  0  0  0  0  0  0  0  0  0
    4.4299   -0.5954   -0.3317 C   0  0  0  0  0  0  0  0  0  0  0  0
    5.0805   -0.1954   -1.6647 C   0  0  0  0  0  0  0  0  0  0  0  0
    6.5535    0.0857   -1.4762 C   0  0  0  0  0  0  0  0  0  0  0  0
    6.9661    1.4164   -1.2861 C   0  0  0  0  0  0  0  0  0  0  0  0
    8.3134    1.7231   -1.0952 C   0  0  0  0  0  0  0  0  0  0  0  0
    9.2670    0.7070   -1.0821 C   0  0  0  0  0  0  0  0  0  0  0  0
    8.8807   -0.6253   -1.2504 C   0  0  0  0  0  0  0  0  0  0  0  0
    7.5231   -0.9496   -1.4403 C   0  0  0  0  0  0  0  0  0  0  0  0
    7.1733   -2.2956   -1.5825 O   0  0  0  0  0  0  0  0  0  0  0  0
    9.8614   -1.6169   -1.2215 O   0  0  0  0  0  0  0  0  0  0  0  0
   -6.6378    2.6024   -3.0299 H   0  0  0  0  0  0  0  0  0  0  0  0
   -7.0137    0.8532   -3.2659 H   0  0  0  0  0  0  0  0  0  0  0  0
   -5.4423    1.3528   -2.5135 H   0  0  0  0  0  0  0  0  0  0  0  0
   -8.2482    1.8274   -1.3111 H   0  0  0  0  0  0  0  0  0  0  0  0
   -6.6825    2.3132   -0.5656 H   0  0  0  0  0  0  0  0  0  0  0  0
   -7.5991   -0.5684   -1.2147 H   0  0  0  0  0  0  0  0  0  0  0  0
   -5.9952   -0.1592   -0.5387 H   0  0  0  0  0  0  0  0  0  0  0  0
   -8.7343   -0.1126    0.8592 H   0  0  0  0  0  0  0  0  0  0  0  0
   -7.6053    0.4691    2.8570 H   0  0  0  0  0  0  0  0  0  0  0  0
   -5.4254    1.4823    2.9019 H   0  0  0  0  0  0  0  0  0  0  0  0
   -5.2545    1.4131    1.1241 H   0  0  0  0  0  0  0  0  0  0  0  0
   -5.0164   -0.9502    3.1147 H   0  0  0  0  0  0  0  0  0  0  0  0
   -4.9107   -1.1247    1.3252 H   0  0  0  0  0  0  0  0  0  0  0  0
   -2.9581    0.4390    1.2849 H   0  0  0  0  0  0  0  0  0  0  0  0
   -3.0401    0.5933    3.0843 H   0  0  0  0  0  0  0  0  0  0  0  0
   -2.7495   -1.9387    3.2413 H   0  0  0  0  0  0  0  0  0  0  0  0
   -2.4972   -1.9997    1.4766 H   0  0  0  0  0  0  0  0  0  0  0  0
   -0.7984   -0.4862    3.5767 H   0  0  0  0  0  0  0  0  0  0  0  0
   -0.3513   -2.0148    2.7679 H   0  0  0  0  0  0  0  0  0  0  0  0
    0.8467   -0.0470    1.8709 H   0  0  0  0  0  0  0  0  0  0  0  0
   -0.6798    0.7330    1.3696 H   0  0  0  0  0  0  0  0  0  0  0  0
    0.4105   -1.9810    0.3186 H   0  0  0  0  0  0  0  0  0  0  0  0
   -1.1389   -1.2401   -0.1685 H   0  0  0  0  0  0  0  0  0  0  0  0
    0.5197   -0.7880   -1.8823 H   0  0  0  0  0  0  0  0  0  0  0  0
   -0.0292    0.7290   -1.1161 H   0  0  0  0  0  0  0  0  0  0  0  0
    2.0905    0.8780    0.2006 H   0  0  0  0  0  0  0  0  0  0  0  0
    2.3640    0.7937   -1.5579 H   0  0  0  0  0  0  0  0  0  0  0  0
    2.6621   -1.5418    0.4371 H   0  0  0  0  0  0  0  0  0  0  0  0
    2.8479   -1.7116   -1.3407 H   0  0  0  0  0  0  0  0  0  0  0  0
    4.9824   -1.4609    0.0941 H   0  0  0  0  0  0  0  0  0  0  0  0
    4.5147    0.2416    0.3958 H   0  0  0  0  0  0  0  0  0  0  0  0
    4.9322   -0.9863   -2.4292 H   0  0  0  0  0  0  0  0  0  0  0  0
    4.5808    0.7112   -2.0662 H   0  0  0  0  0  0  0  0  0  0  0  0
    6.2417    2.2217   -1.2873 H   0  0  0  0  0  0  0  0  0  0  0  0
    8.6188    2.7522   -0.9564 H   0  0  0  0  0  0  0  0  0  0  0  0
   10.3108    0.9542   -0.9343 H   0  0  0  0  0  0  0  0  0  0  0  0
    6.2218   -2.6209   -1.6853 H   0  0  0  0  0  0  0  0  0  0  0  0
    9.6411   -2.5988   -1.3367 H   0  0  0  0  0  0  0  0  0  0  0  0
  1  2  1  0
  2  3  1  0
  3  4  1  0
  4  5  2  0
  5  6  1  0
  6  7  1  0
  7  8  1  0
  8  9  1  0
  9 10  1  0
 10 11  1  0
 11 12  1  0
 12 13  1  0
 13 14  1  0
 14 15  1  0
 15 16  1  0
 16 17  1  0
 17 18  1  0
 18 19  2  0
 19 20  1  0
 20 21  2  0
 21 22  1  0
 22 23  2  0
 23 24  1  0
 22 25  1  0
 23 18  1  0
  1 26  1  0
  1 27  1  0
  1 28  1  0
  2 29  1  0
  2 30  1  0
  3 31  1  0
  3 32  1  0
  4 33  1  0
  5 34  1  0
  6 35  1  0
  6 36  1  0
  7 37  1  0
  7 38  1  0
  8 39  1  0
  8 40  1  0
  9 41  1  0
  9 42  1  0
 10 43  1  0
 10 44  1  0
 11 45  1  0
 11 46  1  0
 12 47  1  0
 12 48  1  0
 13 49  1  0
 13 50  1  0
 14 51  1  0
 14 52  1  0
 15 53  1  0
 15 54  1  0
 16 55  1  0
 16 56  1  0
 17 57  1  0
 17 58  1  0
 19 59  1  0
 20 60  1  0
 21 61  1  0
 24 62  1  0
 25 63  1  0
M  END
$$$$
