
     RDKit          3D

 40 40  0  0  0  0  0  0  0  0999 V2000
   -3.4618   -2.2485   -0.5309 C   0  0  0  0  0  0  0  0  0  0  0  0
   -2.7171   -1.2478   -0.0424 C   0  0  0  0  0  0  0  0  0  0  0  0
   -1.3649   -0.8466   -0.6314 C   0  0  0  0  0  0  0  0  0  0  0  0
   -1.5094   -0.4902   -2.1424 C   0  0  0  0  0  0  0  0  0  0  0  0
   -0.3876   -2.0851   -0.5153 C   0  0  0  0  0  0  0  0  0  0  0  0
    0.9934   -1.7889    0.1096 C   0  0  0  0  0  0  0  0  0  0  0  0
    1.6239   -0.4799   -0.4168 C   0  0  0  0  0  0  0  0  0  0  0  0
    0.6172    0.6520   -0.3682 C   0  0  0  0  0  0  0  0  0  0  0  0
    0.8906    1.7285   -0.8800 O   0  0  0  0  0  0  0  0  0  0  0  0
   -0.7767    0.3777    0.1697 C   0  0  0  0  0  0  0  0  0  0  0  0
   -1.5975    1.6759    0.3214 C   0  0  0  0  0  0  0  0  0  0  0  0
   -2.8296    1.8777   -0.1830 C   0  0  0  0  0  0  0  0  0  0  0  0
   -1.0295    2.7756    1.1876 C   0  0  0  0  0  0  0  0  0  0  0  0
    2.9545   -0.1543    0.3309 C   0  0  0  0  0  0  0  0  0  0  0  0
    2.7401    0.4405    1.7345 C   0  0  0  0  0  0  0  0  0  0  0  0
    3.8618    0.7683   -0.4977 C   0  0  0  0  0  0  0  0  0  0  0  0
   -4.4082   -2.4973   -0.0619 H   0  0  0  0  0  0  0  0  0  0  0  0
   -3.1334   -2.8369   -1.3809 H   0  0  0  0  0  0  0  0  0  0  0  0
   -3.0916   -0.7297    0.8363 H   0  0  0  0  0  0  0  0  0  0  0  0
   -2.1087    0.4182   -2.3257 H   0  0  0  0  0  0  0  0  0  0  0  0
   -1.9787   -1.3212   -2.7087 H   0  0  0  0  0  0  0  0  0  0  0  0
   -0.5134   -0.3153   -2.6011 H   0  0  0  0  0  0  0  0  0  0  0  0
   -0.8400   -2.8945    0.1003 H   0  0  0  0  0  0  0  0  0  0  0  0
   -0.2176   -2.5486   -1.5127 H   0  0  0  0  0  0  0  0  0  0  0  0
    0.8765   -1.7474    1.2128 H   0  0  0  0  0  0  0  0  0  0  0  0
    1.6745   -2.6408   -0.1081 H   0  0  0  0  0  0  0  0  0  0  0  0
    1.8607   -0.6608   -1.4892 H   0  0  0  0  0  0  0  0  0  0  0  0
   -0.6462    0.0298    1.2187 H   0  0  0  0  0  0  0  0  0  0  0  0
   -3.3468    2.8164   -0.0046 H   0  0  0  0  0  0  0  0  0  0  0  0
   -3.3787    1.1394   -0.7451 H   0  0  0  0  0  0  0  0  0  0  0  0
   -0.0622    2.4761    1.6419 H   0  0  0  0  0  0  0  0  0  0  0  0
   -0.8659    3.6890    0.5774 H   0  0  0  0  0  0  0  0  0  0  0  0
   -1.7334    3.0106    2.0145 H   0  0  0  0  0  0  0  0  0  0  0  0
    3.5166   -1.1066    0.4590 H   0  0  0  0  0  0  0  0  0  0  0  0
    3.7179    0.5549    2.2492 H   0  0  0  0  0  0  0  0  0  0  0  0
    2.2613    1.4403    1.6746 H   0  0  0  0  0  0  0  0  0  0  0  0
    2.1083   -0.2230    2.3584 H   0  0  0  0  0  0  0  0  0  0  0  0
    3.4176    1.7792   -0.6064 H   0  0  0  0  0  0  0  0  0  0  0  0
    4.8497    0.8746   -0.0005 H   0  0  0  0  0  0  0  0  0  0  0  0
    4.0342    0.3383   -1.5072 H   0  0  0  0  0  0  0  0  0  0  0  0
  1  2  2  3
  2  3  1  0
  3  4  1  0
  3  5  1  0
  5  6  1  0
  6  7  1  0
  7  8  1  0
  8  9  2  0
  8 10  1  0
 10 11  1  0
 11 12  2  3
 11 13  1  0
  7 14  1  0
 14 15  1  0
 14 16  1  0
 10  3  1  0
  1 17  1  0
  1 18  1  0
  2 19  1  0
  4 20  1  0
  4 21  1  0
  4 22  1  0
  5 23  1  0
  5 24  1  0
  6 25  1  0
  6 26  1  0
  7 27  1  0
 10 28  1  0
 12 29  1  0
 12 30  1  0
 13 31  1  0
 13 32  1  0
 13 33  1  0
 14 34  1  0
 15 35  1  0
 15 36  1  0
 15 37  1  0
 16 38  1  0
 16 39  1  0
 16 40  1  0
M  END
$$$$
