
     RDKit          3D

 17 17  0  0  0  0  0  0  0  0999 V2000
    2.7792   -1.7608   -0.7272 O   0  0  0  0  0  0  0  0  0  0  0  0
    2.4677   -0.4175   -0.5326 C   0  0  0  0  0  0  0  0  0  0  0  0
    3.3801    0.4474   -0.6289 O   0  0  0  0  0  0  0  0  0  0  0  0
    1.0802   -0.0115   -0.2162 C   0  0  0  0  0  0  0  0  0  0  0  0
    0.7571    1.3405   -0.0185 C   0  0  0  0  0  0  0  0  0  0  0  0
   -0.5537    1.7173    0.2797 C   0  0  0  0  0  0  0  0  0  0  0  0
   -1.5664    0.7583    0.3868 C   0  0  0  0  0  0  0  0  0  0  0  0
   -1.2530   -0.6071    0.1896 C   0  0  0  0  0  0  0  0  0  0  0  0
    0.0649   -0.9765   -0.1093 C   0  0  0  0  0  0  0  0  0  0  0  0
   -2.2094   -1.6206    0.2800 O   0  0  0  0  0  0  0  0  0  0  0  0
   -2.8560    1.2016    0.6873 O   0  0  0  0  0  0  0  0  0  0  0  0
    3.7257   -2.0494   -0.9441 H   0  0  0  0  0  0  0  0  0  0  0  0
    1.5167    2.1086   -0.0939 H   0  0  0  0  0  0  0  0  0  0  0  0
   -0.7852    2.7645    0.4292 H   0  0  0  0  0  0  0  0  0  0  0  0
    0.2905   -2.0255   -0.2577 H   0  0  0  0  0  0  0  0  0  0  0  0
   -3.1840   -1.4604    0.4899 H   0  0  0  0  0  0  0  0  0  0  0  0
   -3.6543    0.5911    0.7860 H   0  0  0  0  0  0  0  0  0  0  0  0
  1  2  1  0
  2  3  2  0
  2  4  1  0
  4  5  2  0
  5  6  1  0
  6  7  2  0
  7  8  1  0
  8  9  2  0
  8 10  1  0
  7 11  1  0
  9  4  1  0
  1 12  1  0
  5 13  1  0
  6 14  1  0
  9 15  1  0
 10 16  1  0
 11 17  1  0
M  END
$$$$
