
     RDKit          3D

 42 44  0  0  0  0  0  0  0  0999 V2000
   -5.7198   -2.4865   -0.8282 C   0  0  0  0  0  0  0  0  0  0  0  0
   -4.4449   -1.7713   -1.1884 C   0  0  0  0  0  0  0  0  0  0  0  0
   -3.5820   -1.4669   -0.1962 C   0  0  0  0  0  0  0  0  0  0  0  0
   -2.2851   -0.7588   -0.3609 C   0  0  0  0  0  0  0  0  0  0  0  0
   -2.0824   -0.0430   -1.3791 O   0  0  0  0  0  0  0  0  0  0  0  0
   -1.2298   -0.8307    0.6851 C   0  0  0  0  0  0  0  0  0  0  0  0
   -1.2037   -1.8864    1.6397 C   0  0  0  0  0  0  0  0  0  0  0  0
   -0.1956   -1.9519    2.6183 C   0  0  0  0  0  0  0  0  0  0  0  0
    0.7743   -0.9542    2.6252 C   0  0  0  0  0  0  0  0  0  0  0  0
    0.7679    0.0611    1.7063 C   0  0  0  0  0  0  0  0  0  0  0  0
   -0.2097    0.1511    0.7166 C   0  0  0  0  0  0  0  0  0  0  0  0
    1.8734    0.8470    1.9700 C   0  0  0  0  0  0  0  0  0  0  0  0
    2.5164    0.2416    3.0461 C   0  0  0  0  0  0  0  0  0  0  0  0
    1.8334   -0.8545    3.4481 N   0  0  0  0  0  0  0  0  0  0  0  0
    2.3778    2.0061    1.1677 C   0  0  0  0  0  0  0  0  0  0  0  0
    3.3492    1.5045    0.0913 C   0  0  1  0  0  0  0  0  0  0  0  0
    2.6684    0.9066   -0.9948 O   0  0  0  0  0  0  0  0  0  0  0  0
    3.3430    2.1135   -1.2722 C   0  0  0  0  0  0  0  0  0  0  0  0
    2.3770    3.2493   -1.6343 C   0  0  0  0  0  0  0  0  0  0  0  0
    4.5759    1.8916   -2.1493 C   0  0  0  0  0  0  0  0  0  0  0  0
   -4.1696   -1.4516   -2.6365 C   0  0  0  0  0  0  0  0  0  0  0  0
   -5.4839   -3.4340   -0.2987 H   0  0  0  0  0  0  0  0  0  0  0  0
   -6.3334   -1.8406   -0.1642 H   0  0  0  0  0  0  0  0  0  0  0  0
   -6.3275   -2.7305   -1.7247 H   0  0  0  0  0  0  0  0  0  0  0  0
   -3.8563   -1.7547    0.8124 H   0  0  0  0  0  0  0  0  0  0  0  0
   -1.9398   -2.6777    1.6158 H   0  0  0  0  0  0  0  0  0  0  0  0
   -0.1689   -2.7631    3.3362 H   0  0  0  0  0  0  0  0  0  0  0  0
   -0.1826    0.9574   -0.0038 H   0  0  0  0  0  0  0  0  0  0  0  0
    3.4438    0.5738    3.4945 H   0  0  0  0  0  0  0  0  0  0  0  0
    2.0923   -1.5010    4.2264 H   0  0  0  0  0  0  0  0  0  0  0  0
    1.5116    2.5593    0.7528 H   0  0  0  0  0  0  0  0  0  0  0  0
    2.9270    2.7023    1.8355 H   0  0  0  0  0  0  0  0  0  0  0  0
    4.2287    0.8968    0.3994 H   0  0  0  0  0  0  0  0  0  0  0  0
    2.5167    3.5491   -2.6943 H   0  0  0  0  0  0  0  0  0  0  0  0
    2.5744    4.1323   -0.9905 H   0  0  0  0  0  0  0  0  0  0  0  0
    1.3184    2.9336   -1.5109 H   0  0  0  0  0  0  0  0  0  0  0  0
    5.1836    1.0276   -1.8034 H   0  0  0  0  0  0  0  0  0  0  0  0
    4.2572    1.7014   -3.1973 H   0  0  0  0  0  0  0  0  0  0  0  0
    5.2110    2.8033   -2.1248 H   0  0  0  0  0  0  0  0  0  0  0  0
   -3.1996   -1.8973   -2.9491 H   0  0  0  0  0  0  0  0  0  0  0  0
   -4.1469   -0.3509   -2.7828 H   0  0  0  0  0  0  0  0  0  0  0  0
   -4.9598   -1.8557   -3.3033 H   0  0  0  0  0  0  0  0  0  0  0  0
  1  2  1  0
  2  3  2  3
  3  4  1  0
  4  5  2  0
  4  6  1  0
  6  7  2  0
  7  8  1  0
  8  9  2  0
  9 10  1  0
 10 11  2  0
 10 12  1  0
 12 13  2  0
 13 14  1  0
 12 15  1  0
 15 16  1  0
 16 17  1  0
 17 18  1  0
 18 19  1  0
 18 20  1  0
  2 21  1  0
 11  6  1  0
 18 16  1  0
 14  9  1  0
  1 22  1  0
  1 23  1  0
  1 24  1  0
  3 25  1  0
  7 26  1  0
  8 27  1  0
 11 28  1  0
 13 29  1  0
 14 30  1  0
 15 31  1  0
 15 32  1  0
 16 33  1  1
 19 34  1  0
 19 35  1  0
 19 36  1  0
 20 37  1  0
 20 38  1  0
 20 39  1  0
 21 40  1  0
 21 41  1  0
 21 42  1  0
M  END
$$$$
