
     RDKit          3D

 35 36  0  0  0  0  0  0  0  0999 V2000
   -2.6955    3.4981   -0.5275 O   0  0  0  0  0  0  0  0  0  0  0  0
   -3.5193    2.5577   -0.6802 C   0  0  0  0  0  0  0  0  0  0  0  0
   -3.1771    1.1780   -0.2760 C   0  0  0  0  0  0  0  0  0  0  0  0
   -1.9291    0.6133   -0.6248 C   0  0  0  0  0  0  0  0  0  0  0  0
   -1.0260    1.2923   -1.4521 O   0  0  0  0  0  0  0  0  0  0  0  0
   -1.5882   -0.6777   -0.1812 C   0  0  0  0  0  0  0  0  0  0  0  0
   -0.2780   -1.2500   -0.5625 C   0  0  0  0  0  0  0  0  0  0  0  0
   -0.2407   -2.3379   -1.2003 O   0  0  0  0  0  0  0  0  0  0  0  0
    0.9714   -0.5464   -0.2060 C   0  0  0  0  0  0  0  0  0  0  0  0
    2.1788   -1.0133   -0.5540 C   0  0  0  0  0  0  0  0  0  0  0  0
    3.4532   -0.3382   -0.2061 C   0  0  0  0  0  0  0  0  0  0  0  0
    3.5252    1.0383    0.0937 C   0  0  0  0  0  0  0  0  0  0  0  0
    4.7537    1.6304    0.4040 C   0  0  0  0  0  0  0  0  0  0  0  0
    5.9209    0.8639    0.4105 C   0  0  0  0  0  0  0  0  0  0  0  0
    5.8639   -0.4960    0.0995 C   0  0  0  0  0  0  0  0  0  0  0  0
    4.6389   -1.0935   -0.2123 C   0  0  0  0  0  0  0  0  0  0  0  0
   -2.5120   -1.4329    0.5735 C   0  0  0  0  0  0  0  0  0  0  0  0
   -3.7856   -0.8998    0.8704 C   0  0  0  0  0  0  0  0  0  0  0  0
   -4.1076    0.4106    0.4613 C   0  0  0  0  0  0  0  0  0  0  0  0
   -5.3544    0.9370    0.8228 O   0  0  0  0  0  0  0  0  0  0  0  0
   -4.7918   -1.6816    1.6376 C   0  0  0  0  0  0  0  0  0  0  0  0
   -4.5811   -2.8717    1.9917 O   0  0  0  0  0  0  0  0  0  0  0  0
   -2.1728   -2.7025    1.0550 O   0  0  0  0  0  0  0  0  0  0  0  0
   -4.4991    2.7820   -1.0797 H   0  0  0  0  0  0  0  0  0  0  0  0
   -1.2431    2.1534   -1.9352 H   0  0  0  0  0  0  0  0  0  0  0  0
    0.8826    0.3581    0.3800 H   0  0  0  0  0  0  0  0  0  0  0  0
    2.2442   -1.9559   -1.0854 H   0  0  0  0  0  0  0  0  0  0  0  0
    2.6467    1.6678    0.0670 H   0  0  0  0  0  0  0  0  0  0  0  0
    4.8015    2.6874    0.6325 H   0  0  0  0  0  0  0  0  0  0  0  0
    6.8703    1.3253    0.6499 H   0  0  0  0  0  0  0  0  0  0  0  0
    6.7699   -1.0882    0.0988 H   0  0  0  0  0  0  0  0  0  0  0  0
    4.6155   -2.1500   -0.4507 H   0  0  0  0  0  0  0  0  0  0  0  0
   -5.6426    1.8878    0.6350 H   0  0  0  0  0  0  0  0  0  0  0  0
   -5.7417   -1.2369    1.9028 H   0  0  0  0  0  0  0  0  0  0  0  0
   -1.2509   -3.1091    0.9640 H   0  0  0  0  0  0  0  0  0  0  0  0
  1  2  2  0
  2  3  1  0
  3  4  2  0
  4  5  1  0
  4  6  1  0
  6  7  1  0
  7  8  2  0
  7  9  1  0
  9 10  2  0
 10 11  1  0
 11 12  2  0
 12 13  1  0
 13 14  2  0
 14 15  1  0
 15 16  2  0
  6 17  2  0
 17 18  1  0
 18 19  2  0
 19 20  1  0
 18 21  1  0
 21 22  2  0
 17 23  1  0
 19  3  1  0
 16 11  1  0
  2 24  1  0
  5 25  1  0
  9 26  1  0
 10 27  1  0
 12 28  1  0
 13 29  1  0
 14 30  1  0
 15 31  1  0
 16 32  1  0
 20 33  1  0
 21 34  1  0
 23 35  1  0
M  END
$$$$
