
     RDKit          3D

 41 43  0  0  0  0  0  0  0  0999 V2000
   -3.3759    2.8834    0.7972 C   0  0  0  0  0  0  0  0  0  0  0  0
   -3.0516    1.7367    1.5734 O   0  0  0  0  0  0  0  0  0  0  0  0
   -2.4521    0.6146    0.9927 C   0  0  0  0  0  0  0  0  0  0  0  0
   -3.2195   -0.4323    0.6397 C   0  0  0  0  0  0  0  0  0  0  0  0
   -4.7061   -0.4046    0.9012 C   0  0  0  0  0  0  0  0  0  0  0  0
   -2.6313   -1.5728   -0.1013 C   0  0  0  0  0  0  0  0  0  0  0  0
   -3.3441   -2.5875   -0.3380 O   0  0  0  0  0  0  0  0  0  0  0  0
   -1.2253   -1.5072   -0.6729 C   0  0  0  0  0  0  0  0  0  0  0  0
   -0.3922   -0.4267   -0.0051 C   0  0  0  0  0  0  0  0  0  0  0  0
   -0.9782    0.5879    0.7808 C   0  0  0  0  0  0  0  0  0  0  0  0
   -0.1218    1.5446    1.3625 C   0  0  0  0  0  0  0  0  0  0  0  0
   -0.5691    2.4528    2.1131 O   0  0  0  0  0  0  0  0  0  0  0  0
    1.2489    1.4879    1.1189 C   0  0  0  0  0  0  0  0  0  0  0  0
    1.7589    0.4636    0.3102 C   0  0  0  0  0  0  0  0  0  0  0  0
    0.9243   -0.4307   -0.2104 O   0  0  0  0  0  0  0  0  0  0  0  0
    3.2071    0.3491    0.0033 C   0  0  0  0  0  0  0  0  0  0  0  0
    3.6139   -0.3003   -1.1774 C   0  0  0  0  0  0  0  0  0  0  0  0
    4.9715   -0.4296   -1.4856 C   0  0  0  0  0  0  0  0  0  0  0  0
    5.9387    0.0786   -0.6166 C   0  0  0  0  0  0  0  0  0  0  0  0
    5.5505    0.7125    0.5652 C   0  0  0  0  0  0  0  0  0  0  0  0
    4.1942    0.8458    0.8788 C   0  0  0  0  0  0  0  0  0  0  0  0
   -0.5295   -2.8720   -0.4764 C   0  0  0  0  0  0  0  0  0  0  0  0
   -1.3209   -1.1894   -2.1746 C   0  0  0  0  0  0  0  0  0  0  0  0
   -3.8125    3.6598    1.4581 H   0  0  0  0  0  0  0  0  0  0  0  0
   -4.1186    2.6145    0.0168 H   0  0  0  0  0  0  0  0  0  0  0  0
   -2.4639    3.2915    0.3128 H   0  0  0  0  0  0  0  0  0  0  0  0
   -5.1316   -1.4289    0.9323 H   0  0  0  0  0  0  0  0  0  0  0  0
   -5.2124    0.1684    0.0965 H   0  0  0  0  0  0  0  0  0  0  0  0
   -4.9288    0.0679    1.8815 H   0  0  0  0  0  0  0  0  0  0  0  0
    1.8941    2.2478    1.5402 H   0  0  0  0  0  0  0  0  0  0  0  0
    2.8813   -0.6988   -1.8686 H   0  0  0  0  0  0  0  0  0  0  0  0
    5.2733   -0.9248   -2.3995 H   0  0  0  0  0  0  0  0  0  0  0  0
    6.9893   -0.0240   -0.8562 H   0  0  0  0  0  0  0  0  0  0  0  0
    6.3020    1.0952    1.2438 H   0  0  0  0  0  0  0  0  0  0  0  0
    3.9278    1.3137    1.8166 H   0  0  0  0  0  0  0  0  0  0  0  0
   -0.4499   -3.1124    0.6061 H   0  0  0  0  0  0  0  0  0  0  0  0
    0.4936   -2.8657   -0.9111 H   0  0  0  0  0  0  0  0  0  0  0  0
   -1.0975   -3.6857   -0.9770 H   0  0  0  0  0  0  0  0  0  0  0  0
   -1.9099   -1.9687   -2.7052 H   0  0  0  0  0  0  0  0  0  0  0  0
   -1.8176   -0.2071   -2.3326 H   0  0  0  0  0  0  0  0  0  0  0  0
   -0.3090   -1.1470   -2.6334 H   0  0  0  0  0  0  0  0  0  0  0  0
  1  2  1  0
  2  3  1  0
  3  4  2  0
  4  5  1  0
  4  6  1  0
  6  7  2  0
  6  8  1  0
  8  9  1  0
  9 10  2  0
 10 11  1  0
 11 12  2  0
 11 13  1  0
 13 14  2  0
 14 15  1  0
 14 16  1  0
 16 17  2  0
 17 18  1  0
 18 19  2  0
 19 20  1  0
 20 21  2  0
  8 22  1  0
  8 23  1  0
 10  3  1  0
 21 16  1  0
 15  9  1  0
  1 24  1  0
  1 25  1  0
  1 26  1  0
  5 27  1  0
  5 28  1  0
  5 29  1  0
 13 30  1  0
 17 31  1  0
 18 32  1  0
 19 33  1  0
 20 34  1  0
 21 35  1  0
 22 36  1  0
 22 37  1  0
 22 38  1  0
 23 39  1  0
 23 40  1  0
 23 41  1  0
M  END
$$$$
