
     RDKit          3D

 58 62  0  0  0  0  0  0  0  0999 V2000
   -2.6610    5.3199   -3.2322 C   0  0  0  0  0  0  0  0  0  0  0  0
   -2.2056    3.9718   -3.1805 O   0  0  0  0  0  0  0  0  0  0  0  0
   -1.9603    3.2653   -1.9939 C   0  0  0  0  0  0  0  0  0  0  0  0
   -2.1453    3.8329   -0.7235 C   0  0  0  0  0  0  0  0  0  0  0  0
   -1.8739    3.0590    0.4080 C   0  0  0  0  0  0  0  0  0  0  0  0
   -2.0295    3.5484    1.5572 O   0  0  0  0  0  0  0  0  0  0  0  0
   -1.4489    1.8066    0.2792 O   0  0  0  0  0  0  0  0  0  0  0  0
   -1.2618    1.2250   -0.9058 C   0  0  0  0  0  0  0  0  0  0  0  0
   -1.5124    1.9462   -2.0818 C   0  0  0  0  0  0  0  0  0  0  0  0
   -0.7437   -0.1977   -0.9805 C   0  0  2  0  0  0  0  0  0  0  0  0
   -1.3571   -1.1174    0.0981 C   0  0  1  0  0  0  0  0  0  0  0  0
   -2.0476   -2.3782   -0.4157 C   0  0  0  0  0  0  0  0  0  0  0  0
   -1.5482   -3.1360   -1.4966 C   0  0  0  0  0  0  0  0  0  0  0  0
   -2.1931   -4.3090   -1.8991 C   0  0  0  0  0  0  0  0  0  0  0  0
   -3.3368   -4.7460   -1.2291 C   0  0  0  0  0  0  0  0  0  0  0  0
   -3.8360   -4.0128   -0.1515 C   0  0  0  0  0  0  0  0  0  0  0  0
   -3.1945   -2.8397    0.2562 C   0  0  0  0  0  0  0  0  0  0  0  0
    0.0339   -1.3039    0.7344 C   0  0  2  0  0  0  0  0  0  0  0  0
    0.6684   -0.4393   -0.3843 C   0  0  0  0  0  0  0  0  0  0  0  0
    1.4166    0.7720    0.1308 C   0  0  0  0  0  0  0  0  0  0  0  0
    2.4235    0.6420    1.0038 C   0  0  0  0  0  0  0  0  0  0  0  0
    3.2186    1.7839    1.5143 C   0  0  0  0  0  0  0  0  0  0  0  0
    2.7237    3.1047    1.5239 C   0  0  0  0  0  0  0  0  0  0  0  0
    3.5060    4.1479    2.0293 C   0  0  0  0  0  0  0  0  0  0  0  0
    4.7805    3.8871    2.5373 C   0  0  0  0  0  0  0  0  0  0  0  0
    5.2734    2.5806    2.5481 C   0  0  0  0  0  0  0  0  0  0  0  0
    4.4956    1.5333    2.0449 C   0  0  0  0  0  0  0  0  0  0  0  0
    1.4875   -1.1584   -1.3099 O   0  0  0  0  0  0  0  0  0  0  0  0
    1.9635   -2.4457   -1.0748 C   0  0  0  0  0  0  0  0  0  0  0  0
    2.8103   -2.9480   -1.8586 O   0  0  0  0  0  0  0  0  0  0  0  0
    1.4524   -3.2323    0.0464 C   0  0  0  0  0  0  0  0  0  0  0  0
    0.5261   -2.7282    0.8748 C   0  0  0  0  0  0  0  0  0  0  0  0
   -0.0365   -3.4888    1.9135 O   0  0  0  0  0  0  0  0  0  0  0  0
    0.2264   -4.8685    2.1506 C   0  0  0  0  0  0  0  0  0  0  0  0
   -2.7696    5.6255   -4.2929 H   0  0  0  0  0  0  0  0  0  0  0  0
   -3.6493    5.4083   -2.7334 H   0  0  0  0  0  0  0  0  0  0  0  0
   -1.9241    5.9908   -2.7422 H   0  0  0  0  0  0  0  0  0  0  0  0
   -2.4901    4.8519   -0.6057 H   0  0  0  0  0  0  0  0  0  0  0  0
   -1.3565    1.4934   -3.0532 H   0  0  0  0  0  0  0  0  0  0  0  0
   -0.8362   -0.6016   -2.0114 H   0  0  0  0  0  0  0  0  0  0  0  0
   -2.0229   -0.5631    0.7978 H   0  0  0  0  0  0  0  0  0  0  0  0
   -0.6540   -2.8390   -2.0236 H   0  0  0  0  0  0  0  0  0  0  0  0
   -1.8010   -4.8835   -2.7284 H   0  0  0  0  0  0  0  0  0  0  0  0
   -3.8331   -5.6557   -1.5415 H   0  0  0  0  0  0  0  0  0  0  0  0
   -4.7188   -4.3559    0.3723 H   0  0  0  0  0  0  0  0  0  0  0  0
   -3.5927   -2.2936    1.1023 H   0  0  0  0  0  0  0  0  0  0  0  0
    0.0698   -0.7956    1.7247 H   0  0  0  0  0  0  0  0  0  0  0  0
    1.2013    1.7394   -0.2992 H   0  0  0  0  0  0  0  0  0  0  0  0
    2.6996   -0.3538    1.3326 H   0  0  0  0  0  0  0  0  0  0  0  0
    1.7291    3.3358    1.1678 H   0  0  0  0  0  0  0  0  0  0  0  0
    3.1200    5.1591    2.0341 H   0  0  0  0  0  0  0  0  0  0  0  0
    5.3832    4.6963    2.9290 H   0  0  0  0  0  0  0  0  0  0  0  0
    6.2587    2.3784    2.9479 H   0  0  0  0  0  0  0  0  0  0  0  0
    4.8949    0.5264    2.0621 H   0  0  0  0  0  0  0  0  0  0  0  0
    1.8138   -4.2449    0.1629 H   0  0  0  0  0  0  0  0  0  0  0  0
   -0.3832   -5.2101    3.0119 H   0  0  0  0  0  0  0  0  0  0  0  0
   -0.0522   -5.4682    1.2582 H   0  0  0  0  0  0  0  0  0  0  0  0
    1.2994   -5.0171    2.3946 H   0  0  0  0  0  0  0  0  0  0  0  0
  1  2  1  0
  2  3  1  0
  3  4  2  0
  4  5  1  0
  5  6  2  0
  5  7  1  0
  7  8  1  0
  8  9  2  0
  8 10  1  0
 10 11  1  0
 11 12  1  0
 12 13  2  0
 13 14  1  0
 14 15  2  0
 15 16  1  0
 16 17  2  0
 11 18  1  0
 18 19  1  0
 19 20  1  0
 20 21  2  0
 21 22  1  0
 22 23  2  0
 23 24  1  0
 24 25  2  0
 25 26  1  0
 26 27  2  0
 19 28  1  0
 28 29  1  0
 29 30  2  0
 29 31  1  0
 31 32  2  0
 32 33  1  0
 33 34  1  0
  9  3  1  0
 19 10  1  0
 27 22  1  0
 17 12  1  0
 32 18  1  0
  1 35  1  0
  1 36  1  0
  1 37  1  0
  4 38  1  0
  9 39  1  0
 10 40  1  6
 11 41  1  1
 13 42  1  0
 14 43  1  0
 15 44  1  0
 16 45  1  0
 17 46  1  0
 18 47  1  1
 20 48  1  0
 21 49  1  0
 23 50  1  0
 24 51  1  0
 25 52  1  0
 26 53  1  0
 27 54  1  0
 31 55  1  0
 34 56  1  0
 34 57  1  0
 34 58  1  0
M  END
$$$$
