
     RDKit          3D

 35 37  0  0  0  0  0  0  0  0999 V2000
   -4.8244    2.6893   -0.9555 O   0  0  0  0  0  0  0  0  0  0  0  0
   -4.0203    1.6366   -0.5243 C   0  0  0  0  0  0  0  0  0  0  0  0
   -2.6472    1.6728   -0.7722 C   0  0  0  0  0  0  0  0  0  0  0  0
   -1.8248    0.6264   -0.3466 C   0  0  0  0  0  0  0  0  0  0  0  0
   -0.4544    0.6834   -0.6258 O   0  0  0  0  0  0  0  0  0  0  0  0
    0.4205   -0.4279   -0.4202 C   0  0  0  0  0  0  0  0  0  0  0  0
    0.2834   -1.2871   -1.5319 O   0  0  0  0  0  0  0  0  0  0  0  0
    0.0154   -1.1371    0.8931 C   0  0  0  0  0  0  0  0  0  0  0  0
   -1.4573   -1.5700    0.8499 C   0  0  0  0  0  0  0  0  0  0  0  0
   -2.3703   -0.4621    0.3692 C   0  0  0  0  0  0  0  0  0  0  0  0
   -3.7684   -0.5146    0.5819 C   0  0  0  0  0  0  0  0  0  0  0  0
   -4.5771    0.5419    0.1468 C   0  0  0  0  0  0  0  0  0  0  0  0
   -4.3854   -1.5988    1.2101 O   0  0  0  0  0  0  0  0  0  0  0  0
    1.8512    0.0834   -0.3071 C   0  0  0  0  0  0  0  0  0  0  0  0
    2.1102    1.2966    0.3600 C   0  0  0  0  0  0  0  0  0  0  0  0
    3.4182    1.7622    0.5119 C   0  0  0  0  0  0  0  0  0  0  0  0
    4.4943    1.0168    0.0169 C   0  0  0  0  0  0  0  0  0  0  0  0
    4.2576   -0.2031   -0.6263 C   0  0  0  0  0  0  0  0  0  0  0  0
    2.9444   -0.6714   -0.7799 C   0  0  0  0  0  0  0  0  0  0  0  0
    5.3328   -0.9479   -1.1081 O   0  0  0  0  0  0  0  0  0  0  0  0
    5.8009    1.4789    0.1649 O   0  0  0  0  0  0  0  0  0  0  0  0
   -5.8247    2.6926   -0.7935 H   0  0  0  0  0  0  0  0  0  0  0  0
   -2.2177    2.5129   -1.3036 H   0  0  0  0  0  0  0  0  0  0  0  0
    0.5902   -2.1958   -1.2759 H   0  0  0  0  0  0  0  0  0  0  0  0
    0.1553   -0.4392    1.7488 H   0  0  0  0  0  0  0  0  0  0  0  0
    0.6597   -2.0254    1.0742 H   0  0  0  0  0  0  0  0  0  0  0  0
   -1.7419   -1.8795    1.8779 H   0  0  0  0  0  0  0  0  0  0  0  0
   -1.5694   -2.4462    0.1757 H   0  0  0  0  0  0  0  0  0  0  0  0
   -5.6449    0.5051    0.3235 H   0  0  0  0  0  0  0  0  0  0  0  0
   -3.8884   -2.4334    1.4923 H   0  0  0  0  0  0  0  0  0  0  0  0
    1.2982    1.8844    0.7698 H   0  0  0  0  0  0  0  0  0  0  0  0
    3.5948    2.7012    1.0208 H   0  0  0  0  0  0  0  0  0  0  0  0
    2.7905   -1.6241   -1.2671 H   0  0  0  0  0  0  0  0  0  0  0  0
    5.1959   -1.8355   -1.5775 H   0  0  0  0  0  0  0  0  0  0  0  0
    6.0032    2.3575    0.6275 H   0  0  0  0  0  0  0  0  0  0  0  0
  1  2  1  0
  2  3  2  0
  3  4  1  0
  4  5  1  0
  5  6  1  0
  6  7  1  0
  6  8  1  0
  8  9  1  0
  9 10  1  0
 10 11  1  0
 11 12  2  0
 11 13  1  0
  6 14  1  0
 14 15  2  0
 15 16  1  0
 16 17  2  0
 17 18  1  0
 18 19  2  0
 18 20  1  0
 17 21  1  0
 12  2  1  0
 19 14  1  0
 10  4  2  0
  1 22  1  0
  3 23  1  0
  7 24  1  0
  8 25  1  0
  8 26  1  0
  9 27  1  0
  9 28  1  0
 12 29  1  0
 13 30  1  0
 15 31  1  0
 16 32  1  0
 19 33  1  0
 20 34  1  0
 21 35  1  0
M  END
$$$$
