
     RDKit          3D

 75 79  0  0  0  0  0  0  0  0999 V2000
    7.1202    1.8240   -1.2978 O   0  0  0  0  0  0  0  0  0  0  0  0
    6.6617    0.5032   -1.1481 C   0  0  1  0  0  0  0  0  0  0  0  0
    6.3929    0.2375    0.3408 C   0  0  0  0  0  0  0  0  0  0  0  0
    5.2088    1.0629    0.8756 C   0  0  0  0  0  0  0  0  0  0  0  0
    3.9325    1.0628   -0.0552 C   0  0  1  0  0  0  0  0  0  0  0  0
    4.1061    0.0476   -1.2516 C   0  0  1  0  0  0  0  0  0  0  0  0
    5.4165    0.2606   -2.0421 C   0  0  0  0  0  0  0  0  0  0  0  0
    4.0872   -1.2758   -0.6971 O   0  0  0  0  0  0  0  0  0  0  0  0
    2.8886   -1.6487   -0.1706 O   0  0  0  0  0  0  0  0  0  0  0  0
    1.9443   -0.5795   -0.0967 C   0  0  2  0  0  0  0  0  0  0  0  0
    2.6432    0.5563    0.7361 C   0  0  2  0  0  0  0  0  0  0  0  0
    1.6642    1.6525    1.2582 C   0  0  0  0  0  0  0  0  0  0  0  0
    0.4265    1.0559    1.9727 C   0  0  0  0  0  0  0  0  0  0  0  0
   -0.3169    0.0471    1.0609 C   0  0  1  0  0  0  0  0  0  0  0  0
    0.6833   -1.0534    0.6548 C   0  0  1  0  0  0  0  0  0  0  0  0
   -0.1631   -2.1926    0.1016 C   0  0  0  0  0  0  0  0  0  0  0  0
   -1.4699   -2.1158    0.9172 C   0  0  0  0  0  0  0  0  0  0  0  0
   -1.3707   -0.8343    1.7871 C   0  0  2  0  0  0  0  0  0  0  0  0
   -2.7103   -0.1605    2.2338 C   0  0  1  0  0  0  0  0  0  0  0  0
   -3.7373    0.1114    1.1432 C   0  0  0  0  0  0  0  0  0  0  0  0
   -4.5705   -0.8215    0.6422 C   0  0  0  0  0  0  0  0  0  0  0  0
   -5.7209   -0.4611   -0.2797 C   0  0  1  0  0  0  0  0  0  0  0  0
   -5.2899   -0.2046   -1.7564 C   0  0  0  0  0  0  0  0  0  0  0  0
   -4.3528   -1.2884   -2.3215 C   0  0  0  0  0  0  0  0  0  0  0  0
   -4.6639    1.1858   -1.9424 C   0  0  0  0  0  0  0  0  0  0  0  0
   -6.8039   -1.5480   -0.1997 C   0  0  0  0  0  0  0  0  0  0  0  0
   -3.3499   -0.9221    3.4103 C   0  0  0  0  0  0  0  0  0  0  0  0
   -0.9671    0.7982   -0.1383 C   0  0  0  0  0  0  0  0  0  0  0  0
    1.7408   -0.1465   -1.5333 C   0  0  0  0  0  0  0  0  0  0  0  0
    2.8858    0.1475   -2.1549 C   0  0  0  0  0  0  0  0  0  0  0  0
    3.7540    2.5110   -0.6073 C   0  0  0  0  0  0  0  0  0  0  0  0
    7.6221    1.8624   -2.1527 H   0  0  0  0  0  0  0  0  0  0  0  0
    7.4677   -0.2019   -1.4634 H   0  0  0  0  0  0  0  0  0  0  0  0
    6.2020   -0.8436    0.5026 H   0  0  0  0  0  0  0  0  0  0  0  0
    7.3036    0.4847    0.9296 H   0  0  0  0  0  0  0  0  0  0  0  0
    5.5779    2.1002    1.0419 H   0  0  0  0  0  0  0  0  0  0  0  0
    4.9899    0.6905    1.8986 H   0  0  0  0  0  0  0  0  0  0  0  0
    5.5936   -0.6321   -2.6792 H   0  0  0  0  0  0  0  0  0  0  0  0
    5.2924    1.1130   -2.7424 H   0  0  0  0  0  0  0  0  0  0  0  0
    2.9800    0.0408    1.6624 H   0  0  0  0  0  0  0  0  0  0  0  0
    1.3235    2.3108    0.4354 H   0  0  0  0  0  0  0  0  0  0  0  0
    2.2049    2.2992    1.9830 H   0  0  0  0  0  0  0  0  0  0  0  0
   -0.2559    1.8815    2.2655 H   0  0  0  0  0  0  0  0  0  0  0  0
    0.7612    0.5596    2.9104 H   0  0  0  0  0  0  0  0  0  0  0  0
    1.1064   -1.4753    1.6024 H   0  0  0  0  0  0  0  0  0  0  0  0
    0.3435   -3.1742    0.2400 H   0  0  0  0  0  0  0  0  0  0  0  0
   -0.3688   -2.0415   -0.9785 H   0  0  0  0  0  0  0  0  0  0  0  0
   -2.3178   -2.0806    0.2125 H   0  0  0  0  0  0  0  0  0  0  0  0
   -1.5814   -3.0144    1.5615 H   0  0  0  0  0  0  0  0  0  0  0  0
   -0.8840   -1.1608    2.7385 H   0  0  0  0  0  0  0  0  0  0  0  0
   -2.4341    0.8346    2.6474 H   0  0  0  0  0  0  0  0  0  0  0  0
   -3.9006    1.1496    0.8738 H   0  0  0  0  0  0  0  0  0  0  0  0
   -4.4808   -1.8515    0.9750 H   0  0  0  0  0  0  0  0  0  0  0  0
   -6.1981    0.4630    0.1122 H   0  0  0  0  0  0  0  0  0  0  0  0
   -6.2098   -0.2074   -2.3851 H   0  0  0  0  0  0  0  0  0  0  0  0
   -4.1930   -1.1155   -3.4058 H   0  0  0  0  0  0  0  0  0  0  0  0
   -4.7979   -2.2975   -2.2033 H   0  0  0  0  0  0  0  0  0  0  0  0
   -3.3639   -1.2699   -1.8157 H   0  0  0  0  0  0  0  0  0  0  0  0
   -3.6712    1.2506   -1.4549 H   0  0  0  0  0  0  0  0  0  0  0  0
   -5.3246    1.9744   -1.5226 H   0  0  0  0  0  0  0  0  0  0  0  0
   -4.5289    1.3990   -3.0241 H   0  0  0  0  0  0  0  0  0  0  0  0
   -7.1645   -1.6502    0.8455 H   0  0  0  0  0  0  0  0  0  0  0  0
   -7.6747   -1.2726   -0.8312 H   0  0  0  0  0  0  0  0  0  0  0  0
   -6.4147   -2.5328   -0.5304 H   0  0  0  0  0  0  0  0  0  0  0  0
   -3.5640   -1.9750    3.1362 H   0  0  0  0  0  0  0  0  0  0  0  0
   -2.6658   -0.9226    4.2879 H   0  0  0  0  0  0  0  0  0  0  0  0
   -4.2964   -0.4300    3.7216 H   0  0  0  0  0  0  0  0  0  0  0  0
   -0.2337    1.3338   -0.7629 H   0  0  0  0  0  0  0  0  0  0  0  0
   -1.6529    1.5862    0.2333 H   0  0  0  0  0  0  0  0  0  0  0  0
   -1.5381    0.1136   -0.7975 H   0  0  0  0  0  0  0  0  0  0  0  0
    0.7971   -0.1915   -2.0666 H   0  0  0  0  0  0  0  0  0  0  0  0
    2.9273    0.4116   -3.2069 H   0  0  0  0  0  0  0  0  0  0  0  0
    3.6370    3.2416    0.2209 H   0  0  0  0  0  0  0  0  0  0  0  0
    2.8707    2.6028   -1.2697 H   0  0  0  0  0  0  0  0  0  0  0  0
    4.6456    2.8256   -1.1866 H   0  0  0  0  0  0  0  0  0  0  0  0
  1  2  1  0
  2  3  1  0
  3  4  1  0
  4  5  1  0
  5  6  1  0
  6  7  1  6
  6  8  1  0
  8  9  1  0
 10  9  1  6
 10 11  1  0
 11 12  1  0
 12 13  1  0
 13 14  1  0
 14 15  1  0
 15 16  1  0
 16 17  1  0
 17 18  1  0
 18 19  1  0
 19 20  1  0
 20 21  2  0
 21 22  1  0
 22 23  1  0
 23 24  1  0
 23 25  1  0
 22 26  1  0
 19 27  1  0
 14 28  1  6
 10 29  1  0
 29 30  2  0
  5 31  1  6
  7  2  1  0
 15 10  1  0
 11  5  1  0
 18 14  1  0
 30  6  1  0
  1 32  1  0
  2 33  1  6
  3 34  1  0
  3 35  1  0
  4 36  1  0
  4 37  1  0
  7 38  1  0
  7 39  1  0
 11 40  1  1
 12 41  1  0
 12 42  1  0
 13 43  1  0
 13 44  1  0
 15 45  1  1
 16 46  1  0
 16 47  1  0
 17 48  1  0
 17 49  1  0
 18 50  1  1
 19 51  1  1
 20 52  1  0
 21 53  1  0
 22 54  1  1
 23 55  1  0
 24 56  1  0
 24 57  1  0
 24 58  1  0
 25 59  1  0
 25 60  1  0
 25 61  1  0
 26 62  1  0
 26 63  1  0
 26 64  1  0
 27 65  1  0
 27 66  1  0
 27 67  1  0
 28 68  1  0
 28 69  1  0
 28 70  1  0
 29 71  1  0
 30 72  1  0
 31 73  1  0
 31 74  1  0
 31 75  1  0
M  END
$$$$
