
     RDKit          3D

 27 28  0  0  0  0  0  0  0  0999 V2000
    3.9747   -1.3673    0.0356 C   0  0  0  0  0  0  0  0  0  0  0  0
    3.5711    0.0711   -0.1672 C   0  0  0  0  0  0  0  0  0  0  0  0
    4.5097    0.9927   -0.4084 C   0  0  0  0  0  0  0  0  0  0  0  0
    2.1464    0.4900   -0.1162 C   0  0  0  0  0  0  0  0  0  0  0  0
    1.1313   -0.3755    0.0324 C   0  0  0  0  0  0  0  0  0  0  0  0
   -0.2939    0.0325    0.0751 C   0  0  0  0  0  0  0  0  0  0  0  0
   -0.7004    1.3408    0.4651 C   0  0  0  0  0  0  0  0  0  0  0  0
   -2.0629    1.6884    0.5063 C   0  0  0  0  0  0  0  0  0  0  0  0
   -2.9943    0.7137    0.1649 C   0  0  0  0  0  0  0  0  0  0  0  0
   -2.6174   -0.5501   -0.1964 C   0  0  0  0  0  0  0  0  0  0  0  0
   -1.2779   -0.9298   -0.2477 C   0  0  0  0  0  0  0  0  0  0  0  0
   -3.6917   -1.3081   -0.4706 N   0  0  0  0  0  0  0  0  0  0  0  0
   -4.7664   -0.5092   -0.2788 C   0  0  0  0  0  0  0  0  0  0  0  0
   -4.3705    0.7635    0.1200 C   0  0  0  0  0  0  0  0  0  0  0  0
    5.0787   -1.4926    0.0600 H   0  0  0  0  0  0  0  0  0  0  0  0
    3.5706   -1.7377    1.0011 H   0  0  0  0  0  0  0  0  0  0  0  0
    3.5742   -1.9870   -0.7939 H   0  0  0  0  0  0  0  0  0  0  0  0
    4.2477    2.0325   -0.5618 H   0  0  0  0  0  0  0  0  0  0  0  0
    5.5583    0.7270   -0.4591 H   0  0  0  0  0  0  0  0  0  0  0  0
    1.9325    1.5439   -0.2372 H   0  0  0  0  0  0  0  0  0  0  0  0
    1.3376   -1.4370    0.0782 H   0  0  0  0  0  0  0  0  0  0  0  0
    0.0231    2.0868    0.7623 H   0  0  0  0  0  0  0  0  0  0  0  0
   -2.3757    2.6812    0.8039 H   0  0  0  0  0  0  0  0  0  0  0  0
   -1.0072   -1.9382   -0.5369 H   0  0  0  0  0  0  0  0  0  0  0  0
   -3.7002   -2.3087   -0.7694 H   0  0  0  0  0  0  0  0  0  0  0  0
   -5.7899   -0.8310   -0.4192 H   0  0  0  0  0  0  0  0  0  0  0  0
   -5.0075    1.6080    0.3474 H   0  0  0  0  0  0  0  0  0  0  0  0
  1  2  1  0
  2  3  2  0
  2  4  1  0
  4  5  2  0
  5  6  1  0
  6  7  2  0
  7  8  1  0
  8  9  2  0
  9 10  1  0
 10 11  2  0
 10 12  1  0
 12 13  1  0
 13 14  2  0
 11  6  1  0
 14  9  1  0
  1 15  1  0
  1 16  1  0
  1 17  1  0
  3 18  1  0
  3 19  1  0
  4 20  1  0
  5 21  1  0
  7 22  1  0
  8 23  1  0
 11 24  1  0
 12 25  1  0
 13 26  1  0
 14 27  1  0
M  END
$$$$
