
     RDKit          3D

 29 30  0  0  0  0  0  0  0  0999 V2000
   -2.4267    0.0411   -1.0592 C   0  0  0  0  0  0  0  0  0  0  0  0
   -2.6648   -0.6541    0.2601 C   0  0  0  0  0  0  0  0  0  0  0  0
   -2.0368   -0.2719    1.3939 C   0  0  0  0  0  0  0  0  0  0  0  0
   -1.0488    0.8658    1.4812 C   0  0  0  0  0  0  0  0  0  0  0  0
    0.2833    0.4884    0.8883 C   0  0  0  0  0  0  0  0  0  0  0  0
    1.0311   -0.5831    1.4437 C   0  0  0  0  0  0  0  0  0  0  0  0
    2.2793   -0.9431    0.9048 C   0  0  0  0  0  0  0  0  0  0  0  0
    2.7537   -0.2115   -0.1800 C   0  0  0  0  0  0  0  0  0  0  0  0
    2.0448    0.8290   -0.7164 C   0  0  0  0  0  0  0  0  0  0  0  0
    0.8060    1.2130   -0.2070 C   0  0  0  0  0  0  0  0  0  0  0  0
    2.7079    1.3760   -1.7482 N   0  0  0  0  0  0  0  0  0  0  0  0
    3.8556    0.6695   -1.8663 C   0  0  0  0  0  0  0  0  0  0  0  0
    3.9205   -0.3320   -0.9026 C   0  0  0  0  0  0  0  0  0  0  0  0
   -3.6342   -1.8057    0.3286 C   0  0  0  0  0  0  0  0  0  0  0  0
   -2.6434    1.1257   -0.9675 H   0  0  0  0  0  0  0  0  0  0  0  0
   -1.3755   -0.1053   -1.3799 H   0  0  0  0  0  0  0  0  0  0  0  0
   -3.0817   -0.3666   -1.8567 H   0  0  0  0  0  0  0  0  0  0  0  0
   -2.2539   -0.8031    2.3176 H   0  0  0  0  0  0  0  0  0  0  0  0
   -0.8910    1.1164    2.5522 H   0  0  0  0  0  0  0  0  0  0  0  0
   -1.4701    1.7758    1.0028 H   0  0  0  0  0  0  0  0  0  0  0  0
    0.6430   -1.1360    2.2901 H   0  0  0  0  0  0  0  0  0  0  0  0
    2.8515   -1.7617    1.3221 H   0  0  0  0  0  0  0  0  0  0  0  0
    0.2636    2.0398   -0.6484 H   0  0  0  0  0  0  0  0  0  0  0  0
    2.4039    2.1808   -2.3402 H   0  0  0  0  0  0  0  0  0  0  0  0
    4.6119    0.8683   -2.6141 H   0  0  0  0  0  0  0  0  0  0  0  0
    4.7167   -1.0494   -0.7543 H   0  0  0  0  0  0  0  0  0  0  0  0
   -4.0791   -2.0291   -0.6633 H   0  0  0  0  0  0  0  0  0  0  0  0
   -4.4577   -1.5618    1.0328 H   0  0  0  0  0  0  0  0  0  0  0  0
   -3.1090   -2.7169    0.6859 H   0  0  0  0  0  0  0  0  0  0  0  0
  1  2  1  0
  2  3  2  3
  3  4  1  0
  4  5  1  0
  5  6  2  0
  6  7  1  0
  7  8  2  0
  8  9  1  0
  9 10  2  0
  9 11  1  0
 11 12  1  0
 12 13  2  0
  2 14  1  0
 10  5  1  0
 13  8  1  0
  1 15  1  0
  1 16  1  0
  1 17  1  0
  3 18  1  0
  4 19  1  0
  4 20  1  0
  6 21  1  0
  7 22  1  0
 10 23  1  0
 11 24  1  0
 12 25  1  0
 13 26  1  0
 14 27  1  0
 14 28  1  0
 14 29  1  0
M  END
$$$$
