
     RDKit          3D

 37 37  0  0  0  0  0  0  0  0999 V2000
   -2.4122    2.2801    1.3792 C   0  0  0  0  0  0  0  0  0  0  0  0
   -2.3535    1.7146    0.1664 C   0  0  0  0  0  0  0  0  0  0  0  0
   -1.1275    0.9617   -0.3360 C   0  0  0  0  0  0  0  0  0  0  0  0
   -1.3256    0.6333   -1.8334 C   0  0  0  0  0  0  0  0  0  0  0  0
    0.0938    1.8583   -0.2312 C   0  0  0  0  0  0  0  0  0  0  0  0
    1.3230    1.3444   -0.1098 C   0  0  0  0  0  0  0  0  0  0  0  0
    1.5354   -0.1188    0.0290 C   0  0  0  0  0  0  0  0  0  0  0  0
    0.4827   -0.9175    0.2785 C   0  0  0  0  0  0  0  0  0  0  0  0
   -0.8929   -0.3318    0.5228 C   0  0  0  0  0  0  0  0  0  0  0  0
   -2.0027   -1.3724    0.3765 C   0  0  0  0  0  0  0  0  0  0  0  0
   -2.0095   -2.2651   -0.6294 C   0  0  0  0  0  0  0  0  0  0  0  0
   -3.1357   -1.4002    1.3691 C   0  0  0  0  0  0  0  0  0  0  0  0
    2.9288   -0.7059   -0.0960 C   0  0  0  0  0  0  0  0  0  0  0  0
    3.8242   -0.2338    1.0547 C   0  0  0  0  0  0  0  0  0  0  0  0
    3.5504   -0.3616   -1.4546 C   0  0  0  0  0  0  0  0  0  0  0  0
   -3.3111    2.8017    1.6911 H   0  0  0  0  0  0  0  0  0  0  0  0
   -1.5714    2.2336    2.0639 H   0  0  0  0  0  0  0  0  0  0  0  0
   -3.2272    1.8016   -0.4746 H   0  0  0  0  0  0  0  0  0  0  0  0
   -2.2707    0.0758   -2.0024 H   0  0  0  0  0  0  0  0  0  0  0  0
   -0.4797    0.0279   -2.2241 H   0  0  0  0  0  0  0  0  0  0  0  0
   -1.3829    1.5694   -2.4312 H   0  0  0  0  0  0  0  0  0  0  0  0
   -0.0146    2.9297   -0.3562 H   0  0  0  0  0  0  0  0  0  0  0  0
    2.1730    2.0140   -0.1257 H   0  0  0  0  0  0  0  0  0  0  0  0
    0.6299   -1.9837    0.4079 H   0  0  0  0  0  0  0  0  0  0  0  0
   -0.8680   -0.0225    1.5908 H   0  0  0  0  0  0  0  0  0  0  0  0
   -1.2214   -2.2816   -1.3752 H   0  0  0  0  0  0  0  0  0  0  0  0
   -2.8104   -2.9930   -0.7205 H   0  0  0  0  0  0  0  0  0  0  0  0
   -4.0997   -1.2358    0.8426 H   0  0  0  0  0  0  0  0  0  0  0  0
   -3.1629   -2.3851    1.8814 H   0  0  0  0  0  0  0  0  0  0  0  0
   -3.0231   -0.6089    2.1390 H   0  0  0  0  0  0  0  0  0  0  0  0
    2.8790   -1.8167   -0.0369 H   0  0  0  0  0  0  0  0  0  0  0  0
    4.8133   -0.7364    0.9975 H   0  0  0  0  0  0  0  0  0  0  0  0
    3.3591   -0.4937    2.0297 H   0  0  0  0  0  0  0  0  0  0  0  0
    3.9836    0.8645    1.0142 H   0  0  0  0  0  0  0  0  0  0  0  0
    3.7144    0.7323   -1.5555 H   0  0  0  0  0  0  0  0  0  0  0  0
    2.8833   -0.7023   -2.2753 H   0  0  0  0  0  0  0  0  0  0  0  0
    4.5286   -0.8762   -1.5663 H   0  0  0  0  0  0  0  0  0  0  0  0
  1  2  2  3
  2  3  1  0
  3  4  1  0
  3  5  1  0
  5  6  2  0
  6  7  1  0
  7  8  2  0
  8  9  1  0
  9 10  1  0
 10 11  2  3
 10 12  1  0
  7 13  1  0
 13 14  1  0
 13 15  1  0
  9  3  1  0
  1 16  1  0
  1 17  1  0
  2 18  1  0
  4 19  1  0
  4 20  1  0
  4 21  1  0
  5 22  1  0
  6 23  1  0
  8 24  1  0
  9 25  1  0
 11 26  1  0
 11 27  1  0
 12 28  1  0
 12 29  1  0
 12 30  1  0
 13 31  1  0
 14 32  1  0
 14 33  1  0
 14 34  1  0
 15 35  1  0
 15 36  1  0
 15 37  1  0
M  END
$$$$
