
     RDKit          3D

 52 56  0  0  0  0  0  0  0  0999 V2000
   -1.0309    3.8369   -0.0090 C   0  0  0  0  0  0  0  0  0  0  0  0
   -2.0308    2.8296    0.0468 O   0  0  0  0  0  0  0  0  0  0  0  0
   -1.7983    1.4514   -0.0878 C   0  0  0  0  0  0  0  0  0  0  0  0
   -0.4918    0.9536   -0.2209 C   0  0  0  0  0  0  0  0  0  0  0  0
   -0.2543   -0.4193   -0.3891 C   0  0  0  0  0  0  0  0  0  0  0  0
    1.1409   -1.0214   -0.5057 C   0  0  1  0  0  0  0  0  0  0  0  0
    2.2891   -0.0271   -0.6909 C   0  0  0  0  0  0  0  0  0  0  0  0
    2.2527    0.8375   -1.8215 C   0  0  0  0  0  0  0  0  0  0  0  0
    3.2877    1.7553   -2.0703 C   0  0  0  0  0  0  0  0  0  0  0  0
    4.3630    1.7711   -1.1927 C   0  0  0  0  0  0  0  0  0  0  0  0
    4.4390    0.9244   -0.1383 C   0  0  0  0  0  0  0  0  0  0  0  0
    3.4381   -0.0013    0.1421 C   0  0  0  0  0  0  0  0  0  0  0  0
    5.6220    1.1421    0.5413 O   0  0  0  0  0  0  0  0  0  0  0  0
    6.3304    2.1963   -0.1257 C   0  0  0  0  0  0  0  0  0  0  0  0
    5.4894    2.5698   -1.2256 O   0  0  0  0  0  0  0  0  0  0  0  0
    1.2944   -2.0780    0.6206 C   0  0  1  0  0  0  0  0  0  0  0  0
    1.0770   -1.5315    1.9965 C   0  0  0  0  0  0  0  0  0  0  0  0
    1.6087   -0.4839    2.4520 O   0  0  0  0  0  0  0  0  0  0  0  0
    0.1990   -2.2839    2.7403 O   0  0  0  0  0  0  0  0  0  0  0  0
   -0.2547   -3.4123    2.0172 C   0  0  0  0  0  0  0  0  0  0  0  0
    0.1848   -3.1809    0.5474 C   0  0  0  0  0  0  0  0  0  0  0  0
   -1.0332   -2.8142   -0.3657 C   0  0  0  0  0  0  0  0  0  0  0  0
   -1.3334   -1.3192   -0.3243 C   0  0  0  0  0  0  0  0  0  0  0  0
   -2.6575   -0.8378   -0.2521 C   0  0  0  0  0  0  0  0  0  0  0  0
   -2.8937    0.5526   -0.0980 C   0  0  0  0  0  0  0  0  0  0  0  0
   -4.2197    0.9910    0.0677 O   0  0  0  0  0  0  0  0  0  0  0  0
   -4.6333    2.1956    0.6965 C   0  0  0  0  0  0  0  0  0  0  0  0
   -3.7008   -1.7812   -0.3050 O   0  0  0  0  0  0  0  0  0  0  0  0
   -5.0249   -1.5265   -0.7778 C   0  0  0  0  0  0  0  0  0  0  0  0
   -0.7566   -3.2041   -1.6863 O   0  0  0  0  0  0  0  0  0  0  0  0
   -0.2875    3.6841    0.8003 H   0  0  0  0  0  0  0  0  0  0  0  0
   -0.5292    3.8211   -0.9990 H   0  0  0  0  0  0  0  0  0  0  0  0
   -1.5083    4.8278    0.1379 H   0  0  0  0  0  0  0  0  0  0  0  0
    0.3410    1.6363   -0.1737 H   0  0  0  0  0  0  0  0  0  0  0  0
    1.1586   -1.5978   -1.4551 H   0  0  0  0  0  0  0  0  0  0  0  0
    1.4121    0.8041   -2.5037 H   0  0  0  0  0  0  0  0  0  0  0  0
    3.2516    2.4254   -2.9210 H   0  0  0  0  0  0  0  0  0  0  0  0
    3.5778   -0.6765    0.9692 H   0  0  0  0  0  0  0  0  0  0  0  0
    6.4708    3.0577    0.5600 H   0  0  0  0  0  0  0  0  0  0  0  0
    7.3069    1.8253   -0.5004 H   0  0  0  0  0  0  0  0  0  0  0  0
    2.2920   -2.5662    0.5669 H   0  0  0  0  0  0  0  0  0  0  0  0
    0.2470   -4.3201    2.4204 H   0  0  0  0  0  0  0  0  0  0  0  0
   -1.3524   -3.5250    2.1470 H   0  0  0  0  0  0  0  0  0  0  0  0
    0.6328   -4.1249    0.1635 H   0  0  0  0  0  0  0  0  0  0  0  0
   -1.9118   -3.4051   -0.0209 H   0  0  0  0  0  0  0  0  0  0  0  0
   -4.0809    2.3529    1.6458 H   0  0  0  0  0  0  0  0  0  0  0  0
   -4.4805    3.0580    0.0159 H   0  0  0  0  0  0  0  0  0  0  0  0
   -5.7155    2.1260    0.9203 H   0  0  0  0  0  0  0  0  0  0  0  0
   -5.6166   -0.9819   -0.0111 H   0  0  0  0  0  0  0  0  0  0  0  0
   -4.9921   -0.9495   -1.7285 H   0  0  0  0  0  0  0  0  0  0  0  0
   -5.5267   -2.4945   -0.9736 H   0  0  0  0  0  0  0  0  0  0  0  0
   -1.5913   -3.0616   -2.2079 H   0  0  0  0  0  0  0  0  0  0  0  0
  1  2  1  0
  2  3  1  0
  3  4  2  0
  4  5  1  0
  5  6  1  0
  6  7  1  0
  7  8  2  0
  8  9  1  0
  9 10  2  0
 10 11  1  0
 11 12  2  0
 11 13  1  0
 13 14  1  0
 14 15  1  0
  6 16  1  0
 16 17  1  0
 17 18  2  0
 17 19  1  0
 19 20  1  0
 20 21  1  0
 21 22  1  0
 22 23  1  0
 23 24  1  0
 24 25  2  0
 25 26  1  0
 26 27  1  0
 24 28  1  0
 28 29  1  0
 22 30  1  0
 25  3  1  0
 23  5  2  0
 12  7  1  0
 21 16  1  0
 15 10  1  0
  1 31  1  0
  1 32  1  0
  1 33  1  0
  4 34  1  0
  6 35  1  6
  8 36  1  0
  9 37  1  0
 12 38  1  0
 14 39  1  0
 14 40  1  0
 16 41  1  1
 20 42  1  0
 20 43  1  0
 21 44  1  0
 22 45  1  0
 27 46  1  0
 27 47  1  0
 27 48  1  0
 29 49  1  0
 29 50  1  0
 29 51  1  0
 30 52  1  0
M  END
$$$$
