
     RDKit          3D

 60 63  0  0  0  0  0  0  0  0999 V2000
   -0.9146    3.4717    2.4667 C   0  0  0  0  0  0  0  0  0  0  0  0
   -0.4774    2.4453    1.5823 O   0  0  0  0  0  0  0  0  0  0  0  0
   -1.3298    1.5859    0.8670 C   0  0  0  0  0  0  0  0  0  0  0  0
   -2.7262    1.6684    0.9761 C   0  0  0  0  0  0  0  0  0  0  0  0
   -3.5654    0.8097    0.2437 C   0  0  0  0  0  0  0  0  0  0  0  0
   -4.9619    0.8733    0.3826 O   0  0  0  0  0  0  0  0  0  0  0  0
   -5.6609    1.7848    1.2245 C   0  0  0  0  0  0  0  0  0  0  0  0
   -2.9918   -0.1448   -0.6285 C   0  0  0  0  0  0  0  0  0  0  0  0
   -1.5832   -0.2690   -0.6996 C   0  0  0  0  0  0  0  0  0  0  0  0
   -0.7578    0.6195    0.0260 C   0  0  0  0  0  0  0  0  0  0  0  0
    0.7244    0.5513   -0.0826 C   0  0  0  0  0  0  0  0  0  0  0  0
    1.3803    1.3311   -1.0561 C   0  0  0  0  0  0  0  0  0  0  0  0
    0.6045    2.2365   -1.9808 C   0  0  0  0  0  0  0  0  0  0  0  0
    2.7724    1.2756   -1.1649 C   0  0  0  0  0  0  0  0  0  0  0  0
    3.5422    0.4545   -0.3242 C   0  0  0  0  0  0  0  0  0  0  0  0
    2.8996   -0.3375    0.6621 C   0  0  0  0  0  0  0  0  0  0  0  0
    1.4791   -0.2834    0.7808 C   0  0  0  0  0  0  0  0  0  0  0  0
    0.8391   -1.0716    1.7599 C   0  0  0  0  0  0  0  0  0  0  0  0
    1.5738   -1.8941    2.6042 C   0  0  0  0  0  0  0  0  0  0  0  0
    2.9572   -1.9532    2.4970 C   0  0  0  0  0  0  0  0  0  0  0  0
    3.6389   -1.1851    1.5353 C   0  0  0  0  0  0  0  0  0  0  0  0
    5.0399   -1.2508    1.4329 O   0  0  0  0  0  0  0  0  0  0  0  0
    5.8838   -2.0591    2.2474 C   0  0  0  0  0  0  0  0  0  0  0  0
    4.9424    0.4131   -0.4534 O   0  0  0  0  0  0  0  0  0  0  0  0
    5.7030    1.1570   -1.4005 C   0  0  0  0  0  0  0  0  0  0  0  0
   -0.9882   -1.3150   -1.6231 C   0  0  0  0  0  0  0  0  0  0  0  0
   -1.9056   -2.5453   -1.6802 C   0  0  1  0  0  0  0  0  0  0  0  0
   -3.2751   -2.1330   -1.9829 N   0  0  0  0  0  0  0  0  0  0  0  0
   -3.8155   -1.0586   -1.4852 C   0  0  0  0  0  0  0  0  0  0  0  0
   -5.2292   -0.7419   -1.8758 C   0  0  0  0  0  0  0  0  0  0  0  0
   -1.4262   -3.5459   -2.7298 C   0  0  0  0  0  0  0  0  0  0  0  0
   -0.0279    3.9909    2.8845 H   0  0  0  0  0  0  0  0  0  0  0  0
   -1.4957    3.0318    3.3045 H   0  0  0  0  0  0  0  0  0  0  0  0
   -1.5331    4.2119    1.9166 H   0  0  0  0  0  0  0  0  0  0  0  0
   -3.1611    2.4032    1.6359 H   0  0  0  0  0  0  0  0  0  0  0  0
   -6.7508    1.6045    1.1257 H   0  0  0  0  0  0  0  0  0  0  0  0
   -5.4455    2.8302    0.9180 H   0  0  0  0  0  0  0  0  0  0  0  0
   -5.3701    1.6262    2.2844 H   0  0  0  0  0  0  0  0  0  0  0  0
    0.0698    3.0082   -1.3883 H   0  0  0  0  0  0  0  0  0  0  0  0
   -0.1342    1.6433   -2.5591 H   0  0  0  0  0  0  0  0  0  0  0  0
    1.2669    2.7562   -2.7052 H   0  0  0  0  0  0  0  0  0  0  0  0
    3.2571    1.8831   -1.9167 H   0  0  0  0  0  0  0  0  0  0  0  0
   -0.2361   -1.0621    1.8822 H   0  0  0  0  0  0  0  0  0  0  0  0
    1.0654   -2.4926    3.3495 H   0  0  0  0  0  0  0  0  0  0  0  0
    3.4911   -2.6060    3.1734 H   0  0  0  0  0  0  0  0  0  0  0  0
    6.9381   -1.9056    1.9391 H   0  0  0  0  0  0  0  0  0  0  0  0
    5.7802   -1.7665    3.3136 H   0  0  0  0  0  0  0  0  0  0  0  0
    5.6287   -3.1318    2.1158 H   0  0  0  0  0  0  0  0  0  0  0  0
    5.5575    2.2457   -1.2373 H   0  0  0  0  0  0  0  0  0  0  0  0
    5.4054    0.8785   -2.4334 H   0  0  0  0  0  0  0  0  0  0  0  0
    6.7782    0.9200   -1.2662 H   0  0  0  0  0  0  0  0  0  0  0  0
    0.0124   -1.6451   -1.2727 H   0  0  0  0  0  0  0  0  0  0  0  0
   -0.8781   -0.8708   -2.6362 H   0  0  0  0  0  0  0  0  0  0  0  0
   -1.8956   -3.0442   -0.6851 H   0  0  0  0  0  0  0  0  0  0  0  0
   -5.3304    0.3377   -2.1144 H   0  0  0  0  0  0  0  0  0  0  0  0
   -5.9192   -1.0190   -1.0520 H   0  0  0  0  0  0  0  0  0  0  0  0
   -5.5216   -1.3162   -2.7811 H   0  0  0  0  0  0  0  0  0  0  0  0
   -1.4397   -3.0856   -3.7411 H   0  0  0  0  0  0  0  0  0  0  0  0
   -2.0907   -4.4359   -2.7332 H   0  0  0  0  0  0  0  0  0  0  0  0
   -0.3926   -3.8797   -2.4967 H   0  0  0  0  0  0  0  0  0  0  0  0
  1  2  1  0
  2  3  1  0
  3  4  2  0
  4  5  1  0
  5  6  1  0
  6  7  1  0
  5  8  2  0
  8  9  1  0
  9 10  2  0
 10 11  1  0
 11 12  2  0
 12 13  1  0
 12 14  1  0
 14 15  2  0
 15 16  1  0
 16 17  2  0
 17 18  1  0
 18 19  2  0
 19 20  1  0
 20 21  2  0
 21 22  1  0
 22 23  1  0
 15 24  1  0
 24 25  1  0
  9 26  1  0
 26 27  1  0
 27 28  1  0
 28 29  2  0
 29 30  1  0
 27 31  1  0
 10  3  1  0
 17 11  1  0
 29  8  1  0
 21 16  1  0
  1 32  1  0
  1 33  1  0
  1 34  1  0
  4 35  1  0
  7 36  1  0
  7 37  1  0
  7 38  1  0
 13 39  1  0
 13 40  1  0
 13 41  1  0
 14 42  1  0
 18 43  1  0
 19 44  1  0
 20 45  1  0
 23 46  1  0
 23 47  1  0
 23 48  1  0
 25 49  1  0
 25 50  1  0
 25 51  1  0
 26 52  1  0
 26 53  1  0
 27 54  1  1
 30 55  1  0
 30 56  1  0
 30 57  1  0
 31 58  1  0
 31 59  1  0
 31 60  1  0
M  END
$$$$
