
     RDKit          3D

 33 34  0  0  0  0  0  0  0  0999 V2000
    4.3395    1.8091    1.0742 C   0  0  0  0  0  0  0  0  0  0  0  0
    4.4934    0.3979    0.9625 O   0  0  0  0  0  0  0  0  0  0  0  0
    3.4930   -0.4725    0.5054 C   0  0  0  0  0  0  0  0  0  0  0  0
    2.2236   -0.0240    0.1068 C   0  0  0  0  0  0  0  0  0  0  0  0
    1.2780   -0.9616   -0.3392 C   0  0  0  0  0  0  0  0  0  0  0  0
    1.5911   -2.2554   -0.3732 O   0  0  0  0  0  0  0  0  0  0  0  0
    2.7820   -2.7169   -0.0047 C   0  0  0  0  0  0  0  0  0  0  0  0
    3.0165   -3.9523   -0.0621 O   0  0  0  0  0  0  0  0  0  0  0  0
    3.7712   -1.8386    0.4459 C   0  0  0  0  0  0  0  0  0  0  0  0
   -0.1051   -0.5316   -0.7623 C   0  0  1  0  0  0  0  0  0  0  0  0
   -0.9597   -0.1507    0.4697 C   0  0  1  0  0  0  0  0  0  0  0  0
   -2.3573    0.2838    0.0689 C   0  0  0  0  0  0  0  0  0  0  0  0
   -3.2592   -0.6258   -0.5167 C   0  0  0  0  0  0  0  0  0  0  0  0
   -4.5405   -0.2099   -0.8911 C   0  0  0  0  0  0  0  0  0  0  0  0
   -4.9347    1.1146   -0.6887 C   0  0  0  0  0  0  0  0  0  0  0  0
   -4.0476    2.0269   -0.1131 C   0  0  0  0  0  0  0  0  0  0  0  0
   -2.7649    1.6166    0.2631 C   0  0  0  0  0  0  0  0  0  0  0  0
   -1.0228   -1.2004    1.4057 O   0  0  0  0  0  0  0  0  0  0  0  0
   -0.0221    0.5652   -1.6369 O   0  0  0  0  0  0  0  0  0  0  0  0
    3.5191    2.0487    1.7833 H   0  0  0  0  0  0  0  0  0  0  0  0
    4.1243    2.2497    0.0778 H   0  0  0  0  0  0  0  0  0  0  0  0
    5.2825    2.2472    1.4604 H   0  0  0  0  0  0  0  0  0  0  0  0
    1.9662    1.0262    0.1408 H   0  0  0  0  0  0  0  0  0  0  0  0
    4.7425   -2.2117    0.7474 H   0  0  0  0  0  0  0  0  0  0  0  0
   -0.5950   -1.3832   -1.2897 H   0  0  0  0  0  0  0  0  0  0  0  0
   -0.4525    0.6996    0.9772 H   0  0  0  0  0  0  0  0  0  0  0  0
   -2.9734   -1.6552   -0.6891 H   0  0  0  0  0  0  0  0  0  0  0  0
   -5.2278   -0.9151   -1.3402 H   0  0  0  0  0  0  0  0  0  0  0  0
   -5.9269    1.4345   -0.9798 H   0  0  0  0  0  0  0  0  0  0  0  0
   -4.3533    3.0537    0.0408 H   0  0  0  0  0  0  0  0  0  0  0  0
   -2.0912    2.3405    0.7042 H   0  0  0  0  0  0  0  0  0  0  0  0
   -1.3001   -2.0250    0.9283 H   0  0  0  0  0  0  0  0  0  0  0  0
    0.3110    0.2155   -2.5048 H   0  0  0  0  0  0  0  0  0  0  0  0
  1  2  1  0
  2  3  1  0
  3  4  1  0
  4  5  2  0
  5  6  1  0
  6  7  1  0
  7  8  2  0
  7  9  1  0
  5 10  1  0
 10 11  1  0
 11 12  1  0
 12 13  2  0
 13 14  1  0
 14 15  2  0
 15 16  1  0
 16 17  2  0
 11 18  1  0
 10 19  1  0
  9  3  2  0
 17 12  1  0
  1 20  1  0
  1 21  1  0
  1 22  1  0
  4 23  1  0
  9 24  1  0
 10 25  1  6
 11 26  1  1
 13 27  1  0
 14 28  1  0
 15 29  1  0
 16 30  1  0
 17 31  1  0
 18 32  1  0
 19 33  1  0
M  END
$$$$
