
     RDKit          3D

 43 44  0  0  0  0  0  0  0  0999 V2000
   -2.4571    4.0147   -0.8138 O   0  0  0  0  0  0  0  0  0  0  0  0
   -2.8481    2.8430   -0.5729 C   0  0  0  0  0  0  0  0  0  0  0  0
   -4.1096    2.5089    0.1640 C   0  0  0  0  0  0  0  0  0  0  0  0
   -4.0187    1.0199    0.1293 C   0  0  0  0  0  0  0  0  0  0  0  0
   -2.8739    0.6242   -0.5291 C   0  0  0  0  0  0  0  0  0  0  0  0
   -2.1432    1.7127   -0.9687 O   0  0  0  0  0  0  0  0  0  0  0  0
   -2.5500   -0.7275   -0.6948 C   0  0  0  0  0  0  0  0  0  0  0  0
   -1.2988   -1.1455   -1.4209 C   0  0  0  0  0  0  0  0  0  0  0  0
   -0.0592   -0.6337   -0.7290 C   0  0  0  0  0  0  0  0  0  0  0  0
    0.4399   -1.1391    0.4222 C   0  0  0  0  0  0  0  0  0  0  0  0
    1.6920   -0.5260    1.0094 C   0  0  0  0  0  0  0  0  0  0  0  0
    2.9347   -0.9659    0.2271 C   0  0  0  0  0  0  0  0  0  0  0  0
    4.1769   -0.3226    0.7908 C   0  0  0  0  0  0  0  0  0  0  0  0
    4.6481    0.8867    0.4140 C   0  0  0  0  0  0  0  0  0  0  0  0
    5.8830    1.4200    1.0933 C   0  0  0  0  0  0  0  0  0  0  0  0
    3.9857    1.7009   -0.6731 C   0  0  0  0  0  0  0  0  0  0  0  0
   -0.2216   -2.2914    1.1395 C   0  0  0  0  0  0  0  0  0  0  0  0
   -3.4479   -1.6848   -0.1776 C   0  0  0  0  0  0  0  0  0  0  0  0
   -4.6210   -1.2803    0.4982 C   0  0  0  0  0  0  0  0  0  0  0  0
   -4.9096    0.0858    0.6545 C   0  0  0  0  0  0  0  0  0  0  0  0
   -5.5013   -2.2281    1.0148 O   0  0  0  0  0  0  0  0  0  0  0  0
   -4.0762    2.8880    1.2071 H   0  0  0  0  0  0  0  0  0  0  0  0
   -5.0031    2.8688   -0.3882 H   0  0  0  0  0  0  0  0  0  0  0  0
   -1.3350   -0.7180   -2.4458 H   0  0  0  0  0  0  0  0  0  0  0  0
   -1.2422   -2.2486   -1.5398 H   0  0  0  0  0  0  0  0  0  0  0  0
    0.4587    0.1951   -1.2058 H   0  0  0  0  0  0  0  0  0  0  0  0
    1.8095   -0.8298    2.0724 H   0  0  0  0  0  0  0  0  0  0  0  0
    1.5964    0.5811    1.0037 H   0  0  0  0  0  0  0  0  0  0  0  0
    2.8266   -0.7394   -0.8546 H   0  0  0  0  0  0  0  0  0  0  0  0
    3.0409   -2.0686    0.3195 H   0  0  0  0  0  0  0  0  0  0  0  0
    4.7032   -0.8732    1.5669 H   0  0  0  0  0  0  0  0  0  0  0  0
    5.6952    1.5260    2.1828 H   0  0  0  0  0  0  0  0  0  0  0  0
    6.1769    2.4127    0.6934 H   0  0  0  0  0  0  0  0  0  0  0  0
    6.7300    0.7186    0.9376 H   0  0  0  0  0  0  0  0  0  0  0  0
    4.4987    2.6736   -0.8219 H   0  0  0  0  0  0  0  0  0  0  0  0
    4.0223    1.1487   -1.6353 H   0  0  0  0  0  0  0  0  0  0  0  0
    2.9301    1.9139   -0.4084 H   0  0  0  0  0  0  0  0  0  0  0  0
   -0.3286   -3.1599    0.4569 H   0  0  0  0  0  0  0  0  0  0  0  0
    0.3813   -2.6235    2.0101 H   0  0  0  0  0  0  0  0  0  0  0  0
   -1.2185   -1.9827    1.5142 H   0  0  0  0  0  0  0  0  0  0  0  0
   -3.2369   -2.7410   -0.2913 H   0  0  0  0  0  0  0  0  0  0  0  0
   -5.8054    0.4079    1.1698 H   0  0  0  0  0  0  0  0  0  0  0  0
   -5.3243   -3.2214    0.9208 H   0  0  0  0  0  0  0  0  0  0  0  0
  1  2  2  0
  2  3  1  0
  3  4  1  0
  4  5  2  0
  5  6  1  0
  5  7  1  0
  7  8  1  0
  8  9  1  0
  9 10  2  0
 10 11  1  0
 11 12  1  0
 12 13  1  0
 13 14  2  3
 14 15  1  0
 14 16  1  0
 10 17  1  0
  7 18  2  0
 18 19  1  0
 19 20  2  0
 19 21  1  0
  6  2  1  0
 20  4  1  0
  3 22  1  0
  3 23  1  0
  8 24  1  0
  8 25  1  0
  9 26  1  0
 11 27  1  0
 11 28  1  0
 12 29  1  0
 12 30  1  0
 13 31  1  0
 15 32  1  0
 15 33  1  0
 15 34  1  0
 16 35  1  0
 16 36  1  0
 16 37  1  0
 17 38  1  0
 17 39  1  0
 17 40  1  0
 18 41  1  0
 20 42  1  0
 21 43  1  0
M  END
$$$$
