
     RDKit          3D

 50 49  0  0  0  0  0  0  0  0999 V2000
    5.8764    1.4751   -1.5745 C   0  0  0  0  0  0  0  0  0  0  0  0
    6.5914    0.4783   -0.6624 C   0  0  0  0  0  0  0  0  0  0  0  0
    6.4625    0.8347    0.8281 C   0  0  0  0  0  0  0  0  0  0  0  0
    5.0411    0.6770    1.4008 C   0  0  0  0  0  0  0  0  0  0  0  0
    4.5500   -0.7886    1.4407 C   0  0  0  0  0  0  0  0  0  0  0  0
    3.5192   -1.1136    0.3453 C   0  0  0  0  0  0  0  0  0  0  0  0
    2.1159   -0.5860    0.6948 C   0  0  0  0  0  0  0  0  0  0  0  0
    1.1267   -0.7207   -0.4732 C   0  0  0  0  0  0  0  0  0  0  0  0
    0.7514   -2.1863   -0.7660 C   0  0  0  0  0  0  0  0  0  0  0  0
   -0.3334   -2.3245   -1.8514 C   0  0  0  0  0  0  0  0  0  0  0  0
   -1.6180   -1.7837   -1.3872 C   0  0  0  0  0  0  0  0  0  0  0  0
   -2.6705   -1.3374   -1.0049 C   0  0  0  0  0  0  0  0  0  0  0  0
   -3.9012   -0.8125   -0.5566 C   0  0  0  0  0  0  0  0  0  0  0  0
   -4.9522   -0.3628   -0.1740 C   0  0  0  0  0  0  0  0  0  0  0  0
   -6.2286    0.1850    0.2916 C   0  0  0  0  0  0  0  0  0  0  0  0
   -6.1531    1.6084    0.2688 O   0  0  0  0  0  0  0  0  0  0  0  0
   -7.1156    2.4372    0.8563 C   0  0  0  0  0  0  0  0  0  0  0  0
   -8.1174    1.9467    1.4448 O   0  0  0  0  0  0  0  0  0  0  0  0
   -6.9760    3.9174    0.7477 C   0  0  0  0  0  0  0  0  0  0  0  0
   -7.3276   -0.2877   -0.6221 C   0  0  0  0  0  0  0  0  0  0  0  0
   -8.1786   -1.2527   -0.2616 C   0  0  0  0  0  0  0  0  0  0  0  0
    0.0463   -1.6611   -3.0274 O   0  0  0  0  0  0  0  0  0  0  0  0
    6.0921    1.2242   -2.6343 H   0  0  0  0  0  0  0  0  0  0  0  0
    4.7781    1.4324   -1.4278 H   0  0  0  0  0  0  0  0  0  0  0  0
    6.2346    2.5075   -1.3763 H   0  0  0  0  0  0  0  0  0  0  0  0
    7.6709    0.4844   -0.9270 H   0  0  0  0  0  0  0  0  0  0  0  0
    6.2163   -0.5483   -0.8547 H   0  0  0  0  0  0  0  0  0  0  0  0
    7.1587    0.1923    1.4102 H   0  0  0  0  0  0  0  0  0  0  0  0
    6.7954    1.8846    0.9796 H   0  0  0  0  0  0  0  0  0  0  0  0
    5.0647    1.0585    2.4448 H   0  0  0  0  0  0  0  0  0  0  0  0
    4.3356    1.3359    0.8540 H   0  0  0  0  0  0  0  0  0  0  0  0
    4.0983   -0.9993    2.4353 H   0  0  0  0  0  0  0  0  0  0  0  0
    5.4105   -1.4862    1.3418 H   0  0  0  0  0  0  0  0  0  0  0  0
    3.8516   -0.6995   -0.6293 H   0  0  0  0  0  0  0  0  0  0  0  0
    3.4709   -2.2184    0.2412 H   0  0  0  0  0  0  0  0  0  0  0  0
    1.7228   -1.1248    1.5848 H   0  0  0  0  0  0  0  0  0  0  0  0
    2.1788    0.4904    0.9611 H   0  0  0  0  0  0  0  0  0  0  0  0
    0.2088   -0.1542   -0.2054 H   0  0  0  0  0  0  0  0  0  0  0  0
    1.5587   -0.2485   -1.3823 H   0  0  0  0  0  0  0  0  0  0  0  0
    1.6529   -2.7351   -1.1121 H   0  0  0  0  0  0  0  0  0  0  0  0
    0.3983   -2.6773    0.1680 H   0  0  0  0  0  0  0  0  0  0  0  0
   -0.4885   -3.4063   -2.0656 H   0  0  0  0  0  0  0  0  0  0  0  0
   -6.3922   -0.1605    1.3367 H   0  0  0  0  0  0  0  0  0  0  0  0
   -7.6271    4.2914   -0.0694 H   0  0  0  0  0  0  0  0  0  0  0  0
   -5.9217    4.1846    0.5247 H   0  0  0  0  0  0  0  0  0  0  0  0
   -7.2732    4.3982    1.7035 H   0  0  0  0  0  0  0  0  0  0  0  0
   -7.4050    0.1394   -1.6180 H   0  0  0  0  0  0  0  0  0  0  0  0
   -8.9470   -1.5839   -0.9525 H   0  0  0  0  0  0  0  0  0  0  0  0
   -8.1181   -1.7182    0.7174 H   0  0  0  0  0  0  0  0  0  0  0  0
    0.7658   -2.2053   -3.4422 H   0  0  0  0  0  0  0  0  0  0  0  0
  1  2  1  0
  2  3  1  0
  3  4  1  0
  4  5  1  0
  5  6  1  0
  6  7  1  0
  7  8  1  0
  8  9  1  0
  9 10  1  0
 10 11  1  0
 11 12  3  0
 12 13  1  0
 13 14  3  0
 14 15  1  0
 15 16  1  0
 16 17  1  0
 17 18  2  0
 17 19  1  0
 15 20  1  0
 20 21  2  3
 10 22  1  0
  1 23  1  0
  1 24  1  0
  1 25  1  0
  2 26  1  0
  2 27  1  0
  3 28  1  0
  3 29  1  0
  4 30  1  0
  4 31  1  0
  5 32  1  0
  5 33  1  0
  6 34  1  0
  6 35  1  0
  7 36  1  0
  7 37  1  0
  8 38  1  0
  8 39  1  0
  9 40  1  0
  9 41  1  0
 10 42  1  0
 15 43  1  0
 19 44  1  0
 19 45  1  0
 19 46  1  0
 20 47  1  0
 21 48  1  0
 21 49  1  0
 22 50  1  0
M  END
$$$$
