
     RDKit          3D

 77 82  0  0  0  0  0  0  0  0999 V2000
   -3.4596    2.3619   -3.1621 C   0  0  0  0  0  0  0  0  0  0  0  0
   -3.6622    1.3764   -2.2731 C   0  0  0  0  0  0  0  0  0  0  0  0
   -4.7204    1.5137   -1.2040 C   0  0  0  0  0  0  0  0  0  0  0  0
   -5.6306    0.2718   -1.1651 C   0  0  0  0  0  0  0  0  0  0  0  0
   -4.9003   -1.0658   -1.4400 C   0  0  0  0  0  0  0  0  0  0  0  0
   -3.3662   -0.9406   -1.3351 C   0  0  0  0  0  0  0  0  0  0  0  0
   -2.8491    0.0923   -2.3436 C   0  0  0  0  0  0  0  0  0  0  0  0
   -1.3433    0.3575   -2.1458 C   0  0  0  0  0  0  0  0  0  0  0  0
   -0.4744   -0.7914   -1.5199 C   0  0  0  0  0  0  0  0  0  0  0  0
   -1.1069   -2.2502   -1.4545 C   0  0  0  0  0  0  0  0  0  0  0  0
   -2.6777   -2.2743   -1.6356 C   0  0  0  0  0  0  0  0  0  0  0  0
   -0.5641   -3.0487   -2.6844 C   0  0  0  0  0  0  0  0  0  0  0  0
   -0.5980   -2.8598   -0.0402 C   0  0  0  0  0  0  0  0  0  0  0  0
    0.5701   -1.8677    0.4079 C   0  0  0  0  0  0  0  0  0  0  0  0
    0.0709   -0.4819   -0.0916 C   0  0  0  0  0  0  0  0  0  0  0  0
   -1.0107   -0.0702    0.7160 O   0  0  0  0  0  0  0  0  0  0  0  0
    1.2067    0.5373    0.1117 C   0  0  0  0  0  0  0  0  0  0  0  0
    1.6597    1.4761   -0.8426 C   0  0  0  0  0  0  0  0  0  0  0  0
    1.2638    1.4570   -2.0352 O   0  0  0  0  0  0  0  0  0  0  0  0
    2.5898    2.4453   -0.4727 C   0  0  0  0  0  0  0  0  0  0  0  0
    3.0724    2.4718    0.8411 C   0  0  0  0  0  0  0  0  0  0  0  0
    2.6712    1.5414    1.6996 O   0  0  0  0  0  0  0  0  0  0  0  0
    1.8019    0.5776    1.4013 C   0  0  0  0  0  0  0  0  0  0  0  0
    1.4956   -0.4707    2.4808 C   0  0  0  0  0  0  0  0  0  0  0  0
    0.8824   -1.7554    1.9019 C   0  0  0  0  0  0  0  0  0  0  0  0
    0.8209   -2.7497    2.6117 O   0  0  0  0  0  0  0  0  0  0  0  0
    0.5397    0.1366    3.5235 C   0  0  0  0  0  0  0  0  0  0  0  0
    2.8219   -0.8445    3.1845 C   0  0  0  0  0  0  0  0  0  0  0  0
    4.0475    3.4928    1.3013 C   0  0  0  0  0  0  0  0  0  0  0  0
    4.1304    4.7655    0.7004 C   0  0  0  0  0  0  0  0  0  0  0  0
    5.0525    5.7088    1.1643 C   0  0  0  0  0  0  0  0  0  0  0  0
    5.8956    5.3997    2.2336 C   0  0  0  0  0  0  0  0  0  0  0  0
    5.8146    4.1479    2.8458 C   0  0  0  0  0  0  0  0  0  0  0  0
    4.8942    3.2007    2.3873 C   0  0  0  0  0  0  0  0  0  0  0  0
    1.9474   -2.2552   -0.2378 C   0  0  0  0  0  0  0  0  0  0  0  0
   -0.1118   -4.3381   -0.1478 C   0  0  0  0  0  0  0  0  0  0  0  0
   -1.7368   -2.9193    1.0445 C   0  0  0  0  0  0  0  0  0  0  0  0
   -4.0383    3.2795   -3.1238 H   0  0  0  0  0  0  0  0  0  0  0  0
   -2.7121    2.2606   -3.9429 H   0  0  0  0  0  0  0  0  0  0  0  0
   -4.2104    1.6260   -0.2226 H   0  0  0  0  0  0  0  0  0  0  0  0
   -5.3471    2.4199   -1.3565 H   0  0  0  0  0  0  0  0  0  0  0  0
   -6.4406    0.3966   -1.9169 H   0  0  0  0  0  0  0  0  0  0  0  0
   -6.1193    0.2272   -0.1673 H   0  0  0  0  0  0  0  0  0  0  0  0
   -5.2612   -1.8311   -0.7183 H   0  0  0  0  0  0  0  0  0  0  0  0
   -5.1703   -1.4209   -2.4597 H   0  0  0  0  0  0  0  0  0  0  0  0
   -3.1383   -0.6118   -0.3058 H   0  0  0  0  0  0  0  0  0  0  0  0
   -2.9954   -0.3202   -3.3693 H   0  0  0  0  0  0  0  0  0  0  0  0
   -0.9300    0.5924   -3.1522 H   0  0  0  0  0  0  0  0  0  0  0  0
   -1.2109    1.2936   -1.5654 H   0  0  0  0  0  0  0  0  0  0  0  0
    0.4282   -0.8439   -2.1664 H   0  0  0  0  0  0  0  0  0  0  0  0
   -2.9521   -2.5307   -2.6852 H   0  0  0  0  0  0  0  0  0  0  0  0
   -3.1575   -3.0992   -1.0821 H   0  0  0  0  0  0  0  0  0  0  0  0
   -1.0093   -4.0661   -2.7270 H   0  0  0  0  0  0  0  0  0  0  0  0
    0.5334   -3.1558   -2.6990 H   0  0  0  0  0  0  0  0  0  0  0  0
   -0.8334   -2.5260   -3.6285 H   0  0  0  0  0  0  0  0  0  0  0  0
   -1.1633    0.9033    0.5964 H   0  0  0  0  0  0  0  0  0  0  0  0
    2.9439    3.1496   -1.2146 H   0  0  0  0  0  0  0  0  0  0  0  0
    0.9869    1.0459    3.9801 H   0  0  0  0  0  0  0  0  0  0  0  0
    0.3317   -0.5923    4.3363 H   0  0  0  0  0  0  0  0  0  0  0  0
   -0.4273    0.4259    3.0672 H   0  0  0  0  0  0  0  0  0  0  0  0
    2.6522   -1.5922    3.9891 H   0  0  0  0  0  0  0  0  0  0  0  0
    3.5411   -1.2744    2.4543 H   0  0  0  0  0  0  0  0  0  0  0  0
    3.2919    0.0449    3.6572 H   0  0  0  0  0  0  0  0  0  0  0  0
    3.4711    5.0469   -0.1094 H   0  0  0  0  0  0  0  0  0  0  0  0
    5.1085    6.6841    0.6979 H   0  0  0  0  0  0  0  0  0  0  0  0
    6.6081    6.1318    2.5904 H   0  0  0  0  0  0  0  0  0  0  0  0
    6.4656    3.9101    3.6771 H   0  0  0  0  0  0  0  0  0  0  0  0
    4.8527    2.2348    2.8754 H   0  0  0  0  0  0  0  0  0  0  0  0
    2.7522   -1.5371    0.0214 H   0  0  0  0  0  0  0  0  0  0  0  0
    1.9255   -2.2944   -1.3368 H   0  0  0  0  0  0  0  0  0  0  0  0
    2.3044   -3.2340    0.1462 H   0  0  0  0  0  0  0  0  0  0  0  0
    0.2606   -4.6983    0.8347 H   0  0  0  0  0  0  0  0  0  0  0  0
   -0.9494   -4.9992   -0.4577 H   0  0  0  0  0  0  0  0  0  0  0  0
    0.7042   -4.4881   -0.8803 H   0  0  0  0  0  0  0  0  0  0  0  0
   -2.4820   -3.7076    0.8164 H   0  0  0  0  0  0  0  0  0  0  0  0
   -2.2823   -1.9747    1.1833 H   0  0  0  0  0  0  0  0  0  0  0  0
   -1.3686   -3.2239    2.0385 H   0  0  0  0  0  0  0  0  0  0  0  0
  1  2  2  3
  2  3  1  0
  3  4  1  0
  4  5  1  0
  5  6  1  0
  6  7  1  0
  7  8  1  0
  8  9  1  0
  9 10  1  0
 10 11  1  0
 10 12  1  0
 10 13  1  0
 13 14  1  0
 14 15  1  0
 15 16  1  0
 15 17  1  0
 17 18  1  0
 18 19  2  0
 18 20  1  0
 20 21  2  0
 21 22  1  0
 22 23  1  0
 23 24  1  0
 24 25  1  0
 25 26  2  0
 24 27  1  0
 24 28  1  0
 21 29  1  0
 29 30  2  0
 30 31  1  0
 31 32  2  0
 32 33  1  0
 33 34  2  0
 14 35  1  0
 13 36  1  0
 13 37  1  0
  7  2  1  0
 15  9  1  0
 23 17  2  0
 34 29  1  0
 11  6  1  0
 25 14  1  0
  1 38  1  0
  1 39  1  0
  3 40  1  0
  3 41  1  0
  4 42  1  0
  4 43  1  0
  5 44  1  0
  5 45  1  0
  6 46  1  0
  7 47  1  0
  8 48  1  0
  8 49  1  0
  9 50  1  0
 11 51  1  0
 11 52  1  0
 12 53  1  0
 12 54  1  0
 12 55  1  0
 16 56  1  0
 20 57  1  0
 27 58  1  0
 27 59  1  0
 27 60  1  0
 28 61  1  0
 28 62  1  0
 28 63  1  0
 30 64  1  0
 31 65  1  0
 32 66  1  0
 33 67  1  0
 34 68  1  0
 35 69  1  0
 35 70  1  0
 35 71  1  0
 36 72  1  0
 36 73  1  0
 36 74  1  0
 37 75  1  0
 37 76  1  0
 37 77  1  0
M  END
$$$$
