
     RDKit          3D

 57 60  0  0  0  0  0  0  0  0999 V2000
    0.7790    3.6606   -2.2390 C   0  0  0  0  0  0  0  0  0  0  0  0
    0.3578    2.4066   -1.7129 O   0  0  0  0  0  0  0  0  0  0  0  0
    1.1484    1.5684   -0.9072 C   0  0  0  0  0  0  0  0  0  0  0  0
    2.4576    1.9145   -0.5395 C   0  0  0  0  0  0  0  0  0  0  0  0
    3.2284    1.0745    0.2842 C   0  0  0  0  0  0  0  0  0  0  0  0
    4.5505    1.4092    0.6217 O   0  0  0  0  0  0  0  0  0  0  0  0
    5.2277    2.5912    0.2066 C   0  0  0  0  0  0  0  0  0  0  0  0
    2.6691   -0.1338    0.7617 C   0  0  0  0  0  0  0  0  0  0  0  0
    1.3708   -0.5152    0.3451 C   0  0  0  0  0  0  0  0  0  0  0  0
    0.6051    0.3523   -0.4659 C   0  0  0  0  0  0  0  0  0  0  0  0
   -0.7838    0.0049   -0.8565 C   0  0  0  0  0  0  0  0  0  0  0  0
   -1.0252   -0.6380   -2.0893 C   0  0  0  0  0  0  0  0  0  0  0  0
    0.1078   -0.9817   -3.0229 C   0  0  0  0  0  0  0  0  0  0  0  0
   -2.3359   -0.9617   -2.4538 C   0  0  0  0  0  0  0  0  0  0  0  0
   -3.4110   -0.6656   -1.6087 C   0  0  0  0  0  0  0  0  0  0  0  0
   -3.1880   -0.0245   -0.3612 C   0  0  0  0  0  0  0  0  0  0  0  0
   -1.8605    0.3121    0.0087 C   0  0  0  0  0  0  0  0  0  0  0  0
   -1.6180    0.9502    1.2306 O   0  0  0  0  0  0  0  0  0  0  0  0
   -4.3023    0.2601    0.4755 C   0  0  0  0  0  0  0  0  0  0  0  0
   -4.1057    0.8925    1.7157 O   0  0  0  0  0  0  0  0  0  0  0  0
   -5.1404    1.2260    2.6359 C   0  0  0  0  0  0  0  0  0  0  0  0
   -5.5967   -0.0982    0.0482 C   0  0  0  0  0  0  0  0  0  0  0  0
   -5.7947   -0.7252   -1.1789 C   0  0  0  0  0  0  0  0  0  0  0  0
   -4.7115   -1.0084   -2.0038 C   0  0  0  0  0  0  0  0  0  0  0  0
    0.7969   -1.8254    0.8494 C   0  0  0  0  0  0  0  0  0  0  0  0
    1.9203   -2.8583    1.0225 C   0  0  1  0  0  0  0  0  0  0  0  0
    3.0060   -2.2875    1.8179 N   0  0  0  0  0  0  0  0  0  0  0  0
    3.3998   -1.0532    1.6933 C   0  0  0  0  0  0  0  0  0  0  0  0
    4.5239   -0.5863    2.5707 C   0  0  0  0  0  0  0  0  0  0  0  0
    1.4053   -4.1298    1.6937 C   0  0  0  0  0  0  0  0  0  0  0  0
    1.0287    4.3577   -1.4114 H   0  0  0  0  0  0  0  0  0  0  0  0
   -0.0476    4.0989   -2.8347 H   0  0  0  0  0  0  0  0  0  0  0  0
    1.6587    3.5203   -2.9022 H   0  0  0  0  0  0  0  0  0  0  0  0
    2.8778    2.8422   -0.8962 H   0  0  0  0  0  0  0  0  0  0  0  0
    5.2985    2.6224   -0.9012 H   0  0  0  0  0  0  0  0  0  0  0  0
    4.6951    3.4895    0.5842 H   0  0  0  0  0  0  0  0  0  0  0  0
    6.2542    2.5858    0.6267 H   0  0  0  0  0  0  0  0  0  0  0  0
    0.5973   -0.0504   -3.3766 H   0  0  0  0  0  0  0  0  0  0  0  0
    0.8554   -1.6100   -2.4942 H   0  0  0  0  0  0  0  0  0  0  0  0
   -0.2459   -1.5468   -3.9113 H   0  0  0  0  0  0  0  0  0  0  0  0
   -2.5205   -1.4519   -3.4034 H   0  0  0  0  0  0  0  0  0  0  0  0
   -0.6957    1.2211    1.5474 H   0  0  0  0  0  0  0  0  0  0  0  0
   -5.8558    1.9339    2.1666 H   0  0  0  0  0  0  0  0  0  0  0  0
   -4.6905    1.7142    3.5244 H   0  0  0  0  0  0  0  0  0  0  0  0
   -5.6690    0.3069    2.9661 H   0  0  0  0  0  0  0  0  0  0  0  0
   -6.4640    0.1046    0.6610 H   0  0  0  0  0  0  0  0  0  0  0  0
   -6.7955   -0.9938   -1.4922 H   0  0  0  0  0  0  0  0  0  0  0  0
   -4.8911   -1.4977   -2.9541 H   0  0  0  0  0  0  0  0  0  0  0  0
    0.2920   -1.6381    1.8222 H   0  0  0  0  0  0  0  0  0  0  0  0
    0.0509   -2.2411    0.1391 H   0  0  0  0  0  0  0  0  0  0  0  0
    2.3176   -3.1246    0.0174 H   0  0  0  0  0  0  0  0  0  0  0  0
    4.6682   -1.2836    3.4239 H   0  0  0  0  0  0  0  0  0  0  0  0
    4.2948    0.4160    2.9898 H   0  0  0  0  0  0  0  0  0  0  0  0
    5.4678   -0.5519    1.9881 H   0  0  0  0  0  0  0  0  0  0  0  0
    0.5924   -4.5814    1.0859 H   0  0  0  0  0  0  0  0  0  0  0  0
    2.2295   -4.8690    1.7832 H   0  0  0  0  0  0  0  0  0  0  0  0
    1.0159   -3.9035    2.7095 H   0  0  0  0  0  0  0  0  0  0  0  0
  1  2  1  0
  2  3  1  0
  3  4  2  0
  4  5  1  0
  5  6  1  0
  6  7  1  0
  5  8  2  0
  8  9  1  0
  9 10  2  0
 10 11  1  0
 11 12  2  0
 12 13  1  0
 12 14  1  0
 14 15  2  0
 15 16  1  0
 16 17  2  0
 17 18  1  0
 16 19  1  0
 19 20  1  0
 20 21  1  0
 19 22  2  0
 22 23  1  0
 23 24  2  0
  9 25  1  0
 25 26  1  0
 26 27  1  0
 27 28  2  0
 28 29  1  0
 26 30  1  0
 10  3  1  0
 17 11  1  0
 28  8  1  0
 24 15  1  0
  1 31  1  0
  1 32  1  0
  1 33  1  0
  4 34  1  0
  7 35  1  0
  7 36  1  0
  7 37  1  0
 13 38  1  0
 13 39  1  0
 13 40  1  0
 14 41  1  0
 18 42  1  0
 21 43  1  0
 21 44  1  0
 21 45  1  0
 22 46  1  0
 23 47  1  0
 24 48  1  0
 25 49  1  0
 25 50  1  0
 26 51  1  6
 29 52  1  0
 29 53  1  0
 29 54  1  0
 30 55  1  0
 30 56  1  0
 30 57  1  0
M  END
$$$$
