
     RDKit          3D

 59 62  0  0  0  0  0  0  0  0999 V2000
   -0.0475   -1.4781    1.9807 C   0  0  0  0  0  0  0  0  0  0  0  0
   -0.2788   -0.2589    1.2854 O   0  0  0  0  0  0  0  0  0  0  0  0
   -0.6842   -0.2333   -0.0537 C   0  0  0  0  0  0  0  0  0  0  0  0
   -2.0342    0.0259   -0.3675 C   0  0  0  0  0  0  0  0  0  0  0  0
   -2.4422    0.0904   -1.7090 C   0  0  0  0  0  0  0  0  0  0  0  0
   -3.8503    0.5080   -2.0470 C   0  0  0  0  0  0  0  0  0  0  0  0
   -4.9165    0.0191   -1.0251 C   0  0  1  0  0  0  0  0  0  0  0  0
   -4.3356   -0.3957    0.2832 N   0  0  0  0  0  0  0  0  0  0  0  0
   -3.0702    0.2428    0.7075 C   0  0  2  0  0  0  0  0  0  0  0  0
   -3.2151    1.7392    1.0272 C   0  0  0  0  0  0  0  0  0  0  0  0
   -5.2992   -0.6288    1.3716 C   0  0  0  0  0  0  0  0  0  0  0  0
   -6.0471    1.0611   -0.8937 C   0  0  0  0  0  0  0  0  0  0  0  0
   -1.5024   -0.0851   -2.7317 C   0  0  0  0  0  0  0  0  0  0  0  0
   -0.1627   -0.3417   -2.4351 C   0  0  0  0  0  0  0  0  0  0  0  0
    0.2549   -0.4281   -1.0896 C   0  0  0  0  0  0  0  0  0  0  0  0
    1.6783   -0.6819   -0.7599 C   0  0  0  0  0  0  0  0  0  0  0  0
    2.2009   -1.9909   -0.8589 C   0  0  0  0  0  0  0  0  0  0  0  0
    1.3424   -3.1478   -1.3064 C   0  0  0  0  0  0  0  0  0  0  0  0
    3.5463   -2.2215   -0.5565 C   0  0  0  0  0  0  0  0  0  0  0  0
    4.3767   -1.1798   -0.1300 C   0  0  0  0  0  0  0  0  0  0  0  0
    3.8682    0.1405   -0.0111 C   0  0  0  0  0  0  0  0  0  0  0  0
    2.5101    0.3845   -0.3409 C   0  0  0  0  0  0  0  0  0  0  0  0
    1.9987    1.6850   -0.2612 O   0  0  0  0  0  0  0  0  0  0  0  0
    4.7386    1.1762    0.4286 C   0  0  0  0  0  0  0  0  0  0  0  0
    4.2566    2.4906    0.5586 O   0  0  0  0  0  0  0  0  0  0  0  0
    5.0306    3.6058    0.9897 C   0  0  0  0  0  0  0  0  0  0  0  0
    6.0803    0.8693    0.7318 C   0  0  0  0  0  0  0  0  0  0  0  0
    6.5603   -0.4314    0.6064 C   0  0  0  0  0  0  0  0  0  0  0  0
    5.7170   -1.4511    0.1789 C   0  0  0  0  0  0  0  0  0  0  0  0
    0.7343   -0.4843   -3.4962 O   0  0  0  0  0  0  0  0  0  0  0  0
    0.8398   -1.9990    1.5705 H   0  0  0  0  0  0  0  0  0  0  0  0
    0.1384   -1.2549    3.0510 H   0  0  0  0  0  0  0  0  0  0  0  0
   -0.9371   -2.1381    1.9003 H   0  0  0  0  0  0  0  0  0  0  0  0
   -3.8533    1.6177   -2.1138 H   0  0  0  0  0  0  0  0  0  0  0  0
   -4.1266    0.1311   -3.0568 H   0  0  0  0  0  0  0  0  0  0  0  0
   -5.3799   -0.8910   -1.4672 H   0  0  0  0  0  0  0  0  0  0  0  0
   -2.7271   -0.2597    1.6381 H   0  0  0  0  0  0  0  0  0  0  0  0
   -2.2582    2.1226    1.4414 H   0  0  0  0  0  0  0  0  0  0  0  0
   -3.4520    2.3319    0.1217 H   0  0  0  0  0  0  0  0  0  0  0  0
   -4.0026    1.9057    1.7896 H   0  0  0  0  0  0  0  0  0  0  0  0
   -5.7087    0.3277    1.7578 H   0  0  0  0  0  0  0  0  0  0  0  0
   -4.8105   -1.1737    2.2069 H   0  0  0  0  0  0  0  0  0  0  0  0
   -6.1351   -1.2647    1.0099 H   0  0  0  0  0  0  0  0  0  0  0  0
   -5.7096    1.9537   -0.3305 H   0  0  0  0  0  0  0  0  0  0  0  0
   -6.3849    1.3856   -1.9013 H   0  0  0  0  0  0  0  0  0  0  0  0
   -6.9290    0.6238   -0.3810 H   0  0  0  0  0  0  0  0  0  0  0  0
   -1.8062    0.0023   -3.7679 H   0  0  0  0  0  0  0  0  0  0  0  0
    1.8282   -4.1234   -1.0917 H   0  0  0  0  0  0  0  0  0  0  0  0
    0.3684   -3.1368   -0.7734 H   0  0  0  0  0  0  0  0  0  0  0  0
    1.1621   -3.0784   -2.3990 H   0  0  0  0  0  0  0  0  0  0  0  0
    3.9489   -3.2246   -0.6467 H   0  0  0  0  0  0  0  0  0  0  0  0
    1.0511    1.9322   -0.5163 H   0  0  0  0  0  0  0  0  0  0  0  0
    5.8773    3.7761    0.2917 H   0  0  0  0  0  0  0  0  0  0  0  0
    4.3890    4.5106    0.9954 H   0  0  0  0  0  0  0  0  0  0  0  0
    5.4092    3.4333    2.0192 H   0  0  0  0  0  0  0  0  0  0  0  0
    6.7667    1.6339    1.0680 H   0  0  0  0  0  0  0  0  0  0  0  0
    7.5937   -0.6503    0.8431 H   0  0  0  0  0  0  0  0  0  0  0  0
    6.1138   -2.4558    0.0901 H   0  0  0  0  0  0  0  0  0  0  0  0
    1.7258   -0.6376   -3.3616 H   0  0  0  0  0  0  0  0  0  0  0  0
  1  2  1  0
  2  3  1  0
  3  4  2  0
  4  5  1  0
  5  6  1  0
  6  7  1  0
  7  8  1  0
  8  9  1  0
  9 10  1  0
  8 11  1  0
  7 12  1  0
  5 13  2  0
 13 14  1  0
 14 15  2  0
 15 16  1  0
 16 17  2  0
 17 18  1  0
 17 19  1  0
 19 20  2  0
 20 21  1  0
 21 22  2  0
 22 23  1  0
 21 24  1  0
 24 25  1  0
 25 26  1  0
 24 27  2  0
 27 28  1  0
 28 29  2  0
 14 30  1  0
 15  3  1  0
 22 16  1  0
  9  4  1  0
 29 20  1  0
  1 31  1  0
  1 32  1  0
  1 33  1  0
  6 34  1  0
  6 35  1  0
  7 36  1  6
  9 37  1  1
 10 38  1  0
 10 39  1  0
 10 40  1  0
 11 41  1  0
 11 42  1  0
 11 43  1  0
 12 44  1  0
 12 45  1  0
 12 46  1  0
 13 47  1  0
 18 48  1  0
 18 49  1  0
 18 50  1  0
 19 51  1  0
 23 52  1  0
 26 53  1  0
 26 54  1  0
 26 55  1  0
 27 56  1  0
 28 57  1  0
 29 58  1  0
 30 59  1  0
M  END
$$$$
