
     RDKit          3D

 62 65  0  0  0  0  0  0  0  0999 V2000
   -0.2140    3.7176    2.1190 C   0  0  0  0  0  0  0  0  0  0  0  0
   -0.0643    2.3675    1.6929 O   0  0  0  0  0  0  0  0  0  0  0  0
   -1.0582    1.6182    1.0389 C   0  0  0  0  0  0  0  0  0  0  0  0
   -2.3166    2.1586    0.7403 C   0  0  0  0  0  0  0  0  0  0  0  0
   -3.3026    1.3863    0.1031 C   0  0  0  0  0  0  0  0  0  0  0  0
   -4.5376    1.9471   -0.2656 O   0  0  0  0  0  0  0  0  0  0  0  0
   -4.9253    3.2970   -0.0299 C   0  0  0  0  0  0  0  0  0  0  0  0
   -3.0468    0.0280   -0.1972 C   0  0  0  0  0  0  0  0  0  0  0  0
   -1.7420   -0.4848   -0.0001 C   0  0  0  0  0  0  0  0  0  0  0  0
   -0.7676    0.2996    0.6597 C   0  0  0  0  0  0  0  0  0  0  0  0
    0.5851   -0.2400    0.9394 C   0  0  0  0  0  0  0  0  0  0  0  0
    0.7784   -0.9350    2.1334 C   0  0  0  0  0  0  0  0  0  0  0  0
    2.0241   -1.4597    2.4540 C   0  0  0  0  0  0  0  0  0  0  0  0
    3.1196   -1.3044    1.5861 C   0  0  0  0  0  0  0  0  0  0  0  0
    2.9485   -0.6023    0.3617 C   0  0  0  0  0  0  0  0  0  0  0  0
    1.6653   -0.0688    0.0397 C   0  0  0  0  0  0  0  0  0  0  0  0
    1.4838    0.6159   -1.1777 C   0  0  0  0  0  0  0  0  0  0  0  0
    2.5377    0.7706   -2.0787 C   0  0  0  0  0  0  0  0  0  0  0  0
    2.3294    1.5318   -3.3559 C   0  0  0  0  0  0  0  0  0  0  0  0
    3.8015    0.2737   -1.7555 C   0  0  0  0  0  0  0  0  0  0  0  0
    4.0240   -0.4174   -0.5498 C   0  0  0  0  0  0  0  0  0  0  0  0
    5.2995   -0.9235   -0.2412 O   0  0  0  0  0  0  0  0  0  0  0  0
    6.4518   -0.8039   -1.0697 C   0  0  0  0  0  0  0  0  0  0  0  0
    4.3768   -1.8386    1.9203 O   0  0  0  0  0  0  0  0  0  0  0  0
    4.6694   -2.5593    3.1134 C   0  0  0  0  0  0  0  0  0  0  0  0
   -1.3887   -1.8627   -0.5043 C   0  0  0  0  0  0  0  0  0  0  0  0
   -2.3214   -2.3035   -1.6356 C   0  0  1  0  0  0  0  0  0  0  0  0
   -3.7193   -2.2021   -1.2020 N   0  0  0  0  0  0  0  0  0  0  0  0
   -4.1507   -0.8347   -0.8261 C   0  0  1  0  0  0  0  0  0  0  0  0
   -5.3695   -0.9438    0.1110 C   0  0  0  0  0  0  0  0  0  0  0  0
   -2.0733   -1.5395   -2.9464 C   0  0  0  0  0  0  0  0  0  0  0  0
    0.7247    4.0486    2.6084 H   0  0  0  0  0  0  0  0  0  0  0  0
   -1.0441    3.7970    2.8524 H   0  0  0  0  0  0  0  0  0  0  0  0
   -0.4092    4.3743    1.2451 H   0  0  0  0  0  0  0  0  0  0  0  0
   -2.5258    3.1858    0.9963 H   0  0  0  0  0  0  0  0  0  0  0  0
   -5.9483    3.4540   -0.4288 H   0  0  0  0  0  0  0  0  0  0  0  0
   -4.2315    3.9906   -0.5502 H   0  0  0  0  0  0  0  0  0  0  0  0
   -4.9342    3.5071    1.0605 H   0  0  0  0  0  0  0  0  0  0  0  0
   -0.0455   -1.0711    2.8241 H   0  0  0  0  0  0  0  0  0  0  0  0
    2.1242   -1.9898    3.3908 H   0  0  0  0  0  0  0  0  0  0  0  0
    0.5186    1.0305   -1.4417 H   0  0  0  0  0  0  0  0  0  0  0  0
    1.2915    1.3965   -3.7283 H   0  0  0  0  0  0  0  0  0  0  0  0
    2.5115    2.6118   -3.1756 H   0  0  0  0  0  0  0  0  0  0  0  0
    3.0239    1.1742   -4.1457 H   0  0  0  0  0  0  0  0  0  0  0  0
    4.6112    0.4288   -2.4556 H   0  0  0  0  0  0  0  0  0  0  0  0
    7.3091   -1.2992   -0.5698 H   0  0  0  0  0  0  0  0  0  0  0  0
    6.7023    0.2669   -1.2240 H   0  0  0  0  0  0  0  0  0  0  0  0
    6.2744   -1.3028   -2.0458 H   0  0  0  0  0  0  0  0  0  0  0  0
    4.0474   -3.4777    3.1675 H   0  0  0  0  0  0  0  0  0  0  0  0
    4.4877   -1.9181    4.0016 H   0  0  0  0  0  0  0  0  0  0  0  0
    5.7382   -2.8558    3.1036 H   0  0  0  0  0  0  0  0  0  0  0  0
   -0.3441   -1.8970   -0.8811 H   0  0  0  0  0  0  0  0  0  0  0  0
   -1.4670   -2.5790    0.3420 H   0  0  0  0  0  0  0  0  0  0  0  0
   -2.1050   -3.3748   -1.8472 H   0  0  0  0  0  0  0  0  0  0  0  0
   -3.8402   -2.8531   -0.3887 H   0  0  0  0  0  0  0  0  0  0  0  0
   -4.4904   -0.3263   -1.7548 H   0  0  0  0  0  0  0  0  0  0  0  0
   -5.8907    0.0250    0.2349 H   0  0  0  0  0  0  0  0  0  0  0  0
   -5.0556   -1.3122    1.1113 H   0  0  0  0  0  0  0  0  0  0  0  0
   -6.1078   -1.6576   -0.3132 H   0  0  0  0  0  0  0  0  0  0  0  0
   -1.0441   -1.7419   -3.3123 H   0  0  0  0  0  0  0  0  0  0  0  0
   -2.1852   -0.4436   -2.8116 H   0  0  0  0  0  0  0  0  0  0  0  0
   -2.7930   -1.8790   -3.7209 H   0  0  0  0  0  0  0  0  0  0  0  0
  1  2  1  0
  2  3  1  0
  3  4  2  0
  4  5  1  0
  5  6  1  0
  6  7  1  0
  5  8  2  0
  8  9  1  0
  9 10  2  0
 10 11  1  0
 11 12  2  0
 12 13  1  0
 13 14  2  0
 14 15  1  0
 15 16  2  0
 16 17  1  0
 17 18  2  0
 18 19  1  0
 18 20  1  0
 20 21  2  0
 21 22  1  0
 22 23  1  0
 14 24  1  0
 24 25  1  0
  9 26  1  0
 26 27  1  0
 27 28  1  0
 28 29  1  0
 29 30  1  0
 27 31  1  0
 10  3  1  0
 16 11  1  0
 29  8  1  0
 21 15  1  0
  1 32  1  0
  1 33  1  0
  1 34  1  0
  4 35  1  0
  7 36  1  0
  7 37  1  0
  7 38  1  0
 12 39  1  0
 13 40  1  0
 17 41  1  0
 19 42  1  0
 19 43  1  0
 19 44  1  0
 20 45  1  0
 23 46  1  0
 23 47  1  0
 23 48  1  0
 25 49  1  0
 25 50  1  0
 25 51  1  0
 26 52  1  0
 26 53  1  0
 27 54  1  6
 28 55  1  0
 29 56  1  6
 30 57  1  0
 30 58  1  0
 30 59  1  0
 31 60  1  0
 31 61  1  0
 31 62  1  0
M  END
$$$$
