
     RDKit          3D

 39 41  0  0  0  0  0  0  0  0999 V2000
    2.2215   -2.0055    0.6583 C   0  0  0  0  0  0  0  0  0  0  0  0
    1.8427   -1.0907   -0.5207 C   0  0  2  0  0  0  0  0  0  0  0  0
    2.9721   -0.0859   -0.8190 C   0  0  0  0  0  0  0  0  0  0  0  0
    2.4771    1.2970   -0.3827 C   0  0  0  0  0  0  0  0  0  0  0  0
    1.1574    1.0632    0.3463 C   0  0  2  0  0  0  0  0  0  0  0  0
    0.6000   -0.2098   -0.2826 C   0  0  2  0  0  0  0  0  0  0  0  0
   -0.5007   -0.8239    0.6122 C   0  0  1  0  0  0  0  0  0  0  0  0
   -1.7765    0.0158    0.8499 C   0  0  2  0  0  0  0  0  0  0  0  0
   -1.8435   -1.2905    0.0291 C   0  0  0  0  0  0  0  0  0  0  0  0
   -2.0139   -1.2779   -1.5023 C   0  0  0  0  0  0  0  0  0  0  0  0
   -2.4387   -2.5052    0.7513 C   0  0  0  0  0  0  0  0  0  0  0  0
   -2.1618    1.3333    0.1160 C   0  0  0  0  0  0  0  0  0  0  0  0
   -1.0612    2.1842   -0.5452 C   0  0  0  0  0  0  0  0  0  0  0  0
    0.2157    2.2524    0.2668 C   0  0  0  0  0  0  0  0  0  0  0  0
    0.4958    3.3562    0.9787 C   0  0  0  0  0  0  0  0  0  0  0  0
    2.3404   -1.4209    1.5953 H   0  0  0  0  0  0  0  0  0  0  0  0
    1.4479   -2.7886    0.8032 H   0  0  0  0  0  0  0  0  0  0  0  0
    3.1781   -2.5268    0.4412 H   0  0  0  0  0  0  0  0  0  0  0  0
    1.6741   -1.7398   -1.4098 H   0  0  0  0  0  0  0  0  0  0  0  0
    3.1889   -0.0765   -1.9100 H   0  0  0  0  0  0  0  0  0  0  0  0
    3.9167   -0.3401   -0.2887 H   0  0  0  0  0  0  0  0  0  0  0  0
    2.3176    1.9335   -1.2821 H   0  0  0  0  0  0  0  0  0  0  0  0
    3.2140    1.7947    0.2848 H   0  0  0  0  0  0  0  0  0  0  0  0
    1.3800    0.8596    1.4200 H   0  0  0  0  0  0  0  0  0  0  0  0
    0.2286    0.0111   -1.2976 H   0  0  0  0  0  0  0  0  0  0  0  0
   -0.1793   -1.2855    1.5701 H   0  0  0  0  0  0  0  0  0  0  0  0
   -2.2035   -0.0926    1.8712 H   0  0  0  0  0  0  0  0  0  0  0  0
   -1.8244   -0.2973   -1.9747 H   0  0  0  0  0  0  0  0  0  0  0  0
   -3.0563   -1.5621   -1.7566 H   0  0  0  0  0  0  0  0  0  0  0  0
   -1.3297   -2.0270   -1.9531 H   0  0  0  0  0  0  0  0  0  0  0  0
   -1.9902   -3.4352    0.3432 H   0  0  0  0  0  0  0  0  0  0  0  0
   -2.2535   -2.4786    1.8469 H   0  0  0  0  0  0  0  0  0  0  0  0
   -3.5358   -2.5330    0.5847 H   0  0  0  0  0  0  0  0  0  0  0  0
   -2.9755    1.1447   -0.6154 H   0  0  0  0  0  0  0  0  0  0  0  0
   -2.6307    1.9804    0.8890 H   0  0  0  0  0  0  0  0  0  0  0  0
   -1.4703    3.2076   -0.6991 H   0  0  0  0  0  0  0  0  0  0  0  0
   -0.8505    1.8312   -1.5732 H   0  0  0  0  0  0  0  0  0  0  0  0
    1.3954    3.4134    1.5843 H   0  0  0  0  0  0  0  0  0  0  0  0
   -0.1683    4.2150    0.9701 H   0  0  0  0  0  0  0  0  0  0  0  0
  1  2  1  0
  2  3  1  0
  3  4  1  0
  4  5  1  0
  5  6  1  0
  6  7  1  0
  7  8  1  0
  8  9  1  0
  9 10  1  0
  9 11  1  0
  8 12  1  0
 12 13  1  0
 13 14  1  0
 14 15  2  3
  6  2  1  0
  9  7  1  0
 14  5  1  0
  1 16  1  0
  1 17  1  0
  1 18  1  0
  2 19  1  6
  3 20  1  0
  3 21  1  0
  4 22  1  0
  4 23  1  0
  5 24  1  1
  6 25  1  6
  7 26  1  1
  8 27  1  1
 10 28  1  0
 10 29  1  0
 10 30  1  0
 11 31  1  0
 11 32  1  0
 11 33  1  0
 12 34  1  0
 12 35  1  0
 13 36  1  0
 13 37  1  0
 15 38  1  0
 15 39  1  0
M  END
$$$$
