
     RDKit          3D

 39 39  0  0  0  0  0  0  0  0999 V2000
    5.3283    1.3029    1.8043 C   0  0  0  0  0  0  0  0  0  0  0  0
    5.2419   -0.0921    1.1857 C   0  0  0  0  0  0  0  0  0  0  0  0
    4.6125   -0.0829   -0.2160 C   0  0  0  0  0  0  0  0  0  0  0  0
    3.1086    0.2284   -0.1863 C   0  0  0  0  0  0  0  0  0  0  0  0
    2.4933    0.0919   -1.5872 C   0  0  0  0  0  0  0  0  0  0  0  0
    1.0224    0.5350   -1.6341 C   0  0  0  0  0  0  0  0  0  0  0  0
    0.0881   -0.4418   -0.9090 C   0  0  0  0  0  0  0  0  0  0  0  0
   -1.3374   -0.0273   -1.0884 C   0  0  0  0  0  0  0  0  0  0  0  0
   -2.0150   -0.5083   -2.0373 O   0  0  0  0  0  0  0  0  0  0  0  0
   -1.8884    0.9280   -0.2270 O   0  0  0  0  0  0  0  0  0  0  0  0
   -3.2415    1.3698   -0.3109 C   0  0  0  0  0  0  0  0  0  0  0  0
   -4.1766    0.2896    0.1601 C   0  0  0  0  0  0  0  0  0  0  0  0
   -4.1832   -0.0909    1.5118 C   0  0  0  0  0  0  0  0  0  0  0  0
   -5.0366   -1.1071    1.9532 C   0  0  0  0  0  0  0  0  0  0  0  0
   -5.8849   -1.7515    1.0486 C   0  0  0  0  0  0  0  0  0  0  0  0
   -5.8803   -1.3816   -0.2992 C   0  0  0  0  0  0  0  0  0  0  0  0
   -5.0285   -0.3658   -0.7448 C   0  0  0  0  0  0  0  0  0  0  0  0
    5.8539    2.0009    1.1186 H   0  0  0  0  0  0  0  0  0  0  0  0
    4.3156    1.6967    2.0293 H   0  0  0  0  0  0  0  0  0  0  0  0
    5.8966    1.2490    2.7567 H   0  0  0  0  0  0  0  0  0  0  0  0
    4.6668   -0.7637    1.8595 H   0  0  0  0  0  0  0  0  0  0  0  0
    6.2724   -0.5008    1.1044 H   0  0  0  0  0  0  0  0  0  0  0  0
    4.7619   -1.0894   -0.6651 H   0  0  0  0  0  0  0  0  0  0  0  0
    5.1400    0.6550   -0.8597 H   0  0  0  0  0  0  0  0  0  0  0  0
    2.6080   -0.4764    0.5111 H   0  0  0  0  0  0  0  0  0  0  0  0
    2.9506    1.2656    0.1787 H   0  0  0  0  0  0  0  0  0  0  0  0
    3.0660    0.7319   -2.2940 H   0  0  0  0  0  0  0  0  0  0  0  0
    2.5807   -0.9596   -1.9391 H   0  0  0  0  0  0  0  0  0  0  0  0
    0.9210    1.5526   -1.1962 H   0  0  0  0  0  0  0  0  0  0  0  0
    0.7169    0.5965   -2.7022 H   0  0  0  0  0  0  0  0  0  0  0  0
    0.3146   -0.4560    0.1776 H   0  0  0  0  0  0  0  0  0  0  0  0
    0.2276   -1.4701   -1.3083 H   0  0  0  0  0  0  0  0  0  0  0  0
   -3.3646    2.2610    0.3400 H   0  0  0  0  0  0  0  0  0  0  0  0
   -3.4728    1.6878   -1.3513 H   0  0  0  0  0  0  0  0  0  0  0  0
   -3.5268    0.3983    2.2210 H   0  0  0  0  0  0  0  0  0  0  0  0
   -5.0388   -1.3961    2.9963 H   0  0  0  0  0  0  0  0  0  0  0  0
   -6.5443   -2.5383    1.3915 H   0  0  0  0  0  0  0  0  0  0  0  0
   -6.5357   -1.8833   -0.9994 H   0  0  0  0  0  0  0  0  0  0  0  0
   -5.0324   -0.0935   -1.7929 H   0  0  0  0  0  0  0  0  0  0  0  0
  1  2  1  0
  2  3  1  0
  3  4  1  0
  4  5  1  0
  5  6  1  0
  6  7  1  0
  7  8  1  0
  8  9  2  0
  8 10  1  0
 10 11  1  0
 11 12  1  0
 12 13  2  0
 13 14  1  0
 14 15  2  0
 15 16  1  0
 16 17  2  0
 17 12  1  0
  1 18  1  0
  1 19  1  0
  1 20  1  0
  2 21  1  0
  2 22  1  0
  3 23  1  0
  3 24  1  0
  4 25  1  0
  4 26  1  0
  5 27  1  0
  5 28  1  0
  6 29  1  0
  6 30  1  0
  7 31  1  0
  7 32  1  0
 11 33  1  0
 11 34  1  0
 13 35  1  0
 14 36  1  0
 15 37  1  0
 16 38  1  0
 17 39  1  0
M  END
$$$$
