
     RDKit          3D

 35 37  0  0  0  0  0  0  0  0999 V2000
   -4.4917    1.7444    2.7726 O   0  0  0  0  0  0  0  0  0  0  0  0
   -3.8053    1.0680    1.7666 C   0  0  0  0  0  0  0  0  0  0  0  0
   -2.4198    0.8931    1.8423 C   0  0  0  0  0  0  0  0  0  0  0  0
   -1.7387    0.2151    0.8281 C   0  0  0  0  0  0  0  0  0  0  0  0
   -0.3552    0.0410    0.9379 O   0  0  0  0  0  0  0  0  0  0  0  0
    0.3811   -0.7961    0.0467 C   0  0  2  0  0  0  0  0  0  0  0  0
    1.8468   -0.4339    0.1055 C   0  0  0  0  0  0  0  0  0  0  0  0
    2.8228   -1.4421    0.1656 C   0  0  0  0  0  0  0  0  0  0  0  0
    4.1800   -1.1107    0.1929 C   0  0  0  0  0  0  0  0  0  0  0  0
    4.5800    0.2315    0.1516 C   0  0  0  0  0  0  0  0  0  0  0  0
    3.6150    1.2441    0.0796 C   0  0  0  0  0  0  0  0  0  0  0  0
    2.2532    0.9111    0.0527 C   0  0  0  0  0  0  0  0  0  0  0  0
    4.0160    2.5781    0.0332 O   0  0  0  0  0  0  0  0  0  0  0  0
    5.9326    0.5661    0.1792 O   0  0  0  0  0  0  0  0  0  0  0  0
   -0.1707   -0.6500   -1.3813 C   0  0  2  0  0  0  0  0  0  0  0  0
   -1.6751   -0.9806   -1.3975 C   0  0  0  0  0  0  0  0  0  0  0  0
   -2.4378   -0.2707   -0.2983 C   0  0  0  0  0  0  0  0  0  0  0  0
   -3.8454   -0.1294   -0.3480 C   0  0  0  0  0  0  0  0  0  0  0  0
   -4.5111    0.5532    0.6768 C   0  0  0  0  0  0  0  0  0  0  0  0
   -4.6111   -0.6602   -1.3886 O   0  0  0  0  0  0  0  0  0  0  0  0
    0.5158   -1.5178   -2.2461 O   0  0  0  0  0  0  0  0  0  0  0  0
   -4.0096    2.1276    3.5774 H   0  0  0  0  0  0  0  0  0  0  0  0
   -1.8704    1.2781    2.6923 H   0  0  0  0  0  0  0  0  0  0  0  0
    0.2404   -1.8506    0.3760 H   0  0  0  0  0  0  0  0  0  0  0  0
    2.5342   -2.4856    0.1896 H   0  0  0  0  0  0  0  0  0  0  0  0
    4.9208   -1.8984    0.2432 H   0  0  0  0  0  0  0  0  0  0  0  0
    1.5128    1.6992   -0.0112 H   0  0  0  0  0  0  0  0  0  0  0  0
    3.3419    3.3328   -0.0198 H   0  0  0  0  0  0  0  0  0  0  0  0
    6.6534   -0.1444    0.2303 H   0  0  0  0  0  0  0  0  0  0  0  0
   -0.0310    0.4065   -1.7133 H   0  0  0  0  0  0  0  0  0  0  0  0
   -2.0707   -0.6776   -2.3902 H   0  0  0  0  0  0  0  0  0  0  0  0
   -1.8195   -2.0764   -1.2780 H   0  0  0  0  0  0  0  0  0  0  0  0
   -5.5864    0.6739    0.6309 H   0  0  0  0  0  0  0  0  0  0  0  0
   -4.2239   -1.2307   -2.1286 H   0  0  0  0  0  0  0  0  0  0  0  0
    0.3264   -1.2087   -3.1704 H   0  0  0  0  0  0  0  0  0  0  0  0
  1  2  1  0
  2  3  2  0
  3  4  1  0
  4  5  1  0
  5  6  1  0
  6  7  1  0
  7  8  2  0
  8  9  1  0
  9 10  2  0
 10 11  1  0
 11 12  2  0
 11 13  1  0
 10 14  1  0
  6 15  1  0
 15 16  1  0
 16 17  1  0
 17 18  1  0
 18 19  2  0
 18 20  1  0
 15 21  1  0
 19  2  1  0
 17  4  2  0
 12  7  1  0
  1 22  1  0
  3 23  1  0
  6 24  1  1
  8 25  1  0
  9 26  1  0
 12 27  1  0
 13 28  1  0
 14 29  1  0
 15 30  1  6
 16 31  1  0
 16 32  1  0
 19 33  1  0
 20 34  1  0
 21 35  1  0
M  END
$$$$
