
     RDKit          3D

 54 58  0  0  0  0  0  0  0  0999 V2000
    3.3480   -4.7567    0.4422 C   0  0  0  0  0  0  0  0  0  0  0  0
    2.2876   -3.7077    0.2480 C   0  0  0  0  0  0  0  0  0  0  0  0
    2.5246   -2.4524    0.6775 C   0  0  0  0  0  0  0  0  0  0  0  0
    1.5017   -1.3374    0.5802 C   0  0  2  0  0  0  0  0  0  0  0  0
    0.4443   -1.5720   -0.5566 C   0  0  2  0  0  0  0  0  0  0  0  0
   -0.0780   -3.0256   -0.4135 C   0  0  0  0  0  0  0  0  0  0  0  0
    1.0423   -4.0686   -0.5318 C   0  0  0  0  0  0  0  0  0  0  0  0
    1.0587   -1.3574   -1.9651 C   0  0  0  0  0  0  0  0  0  0  0  0
   -0.7300   -0.6151   -0.3686 C   0  0  0  0  0  0  0  0  0  0  0  0
   -1.7849   -0.5814   -1.1995 C   0  0  0  0  0  0  0  0  0  0  0  0
   -2.9293    0.3483   -1.0401 C   0  0  0  0  0  0  0  0  0  0  0  0
   -3.7377    0.6238   -2.1742 C   0  0  0  0  0  0  0  0  0  0  0  0
   -4.8413    1.4907   -2.0832 C   0  0  0  0  0  0  0  0  0  0  0  0
   -5.1206    2.0613   -0.8452 C   0  0  0  0  0  0  0  0  0  0  0  0
   -4.3580    1.7930    0.2580 C   0  0  0  0  0  0  0  0  0  0  0  0
   -3.2585    0.9398    0.2065 C   0  0  0  0  0  0  0  0  0  0  0  0
   -4.9004    2.4930    1.3138 C   0  0  0  0  0  0  0  0  0  0  0  0
   -5.9921    3.1694    0.7788 C   0  0  0  0  0  0  0  0  0  0  0  0
   -6.1227    2.9019   -0.5408 N   0  0  0  0  0  0  0  0  0  0  0  0
    2.1888    0.0228    0.5115 C   0  0  0  0  0  0  0  0  0  0  0  0
    3.2955    0.2492   -0.3561 C   0  0  0  0  0  0  0  0  0  0  0  0
    3.9135    1.5101   -0.4263 C   0  0  0  0  0  0  0  0  0  0  0  0
    3.4136    2.5264    0.3817 C   0  0  0  0  0  0  0  0  0  0  0  0
    2.3585    2.3194    1.2263 C   0  0  0  0  0  0  0  0  0  0  0  0
    1.7230    1.0849    1.3238 C   0  0  0  0  0  0  0  0  0  0  0  0
    2.1153    3.5069    1.8814 C   0  0  0  0  0  0  0  0  0  0  0  0
    3.0628    4.3962    1.3845 C   0  0  0  0  0  0  0  0  0  0  0  0
    3.8541    3.7921    0.4686 N   0  0  0  0  0  0  0  0  0  0  0  0
    4.2957   -4.4295   -0.0359 H   0  0  0  0  0  0  0  0  0  0  0  0
    3.0417   -5.7224   -0.0129 H   0  0  0  0  0  0  0  0  0  0  0  0
    3.5221   -4.9177    1.5270 H   0  0  0  0  0  0  0  0  0  0  0  0
    3.4445   -2.2505    1.2222 H   0  0  0  0  0  0  0  0  0  0  0  0
    0.9550   -1.3882    1.5498 H   0  0  0  0  0  0  0  0  0  0  0  0
   -0.8458   -3.2494   -1.1857 H   0  0  0  0  0  0  0  0  0  0  0  0
   -0.5694   -3.1457    0.5785 H   0  0  0  0  0  0  0  0  0  0  0  0
    1.3182   -4.1967   -1.6004 H   0  0  0  0  0  0  0  0  0  0  0  0
    0.6533   -5.0451   -0.1706 H   0  0  0  0  0  0  0  0  0  0  0  0
    2.0211   -1.8987   -2.0733 H   0  0  0  0  0  0  0  0  0  0  0  0
    1.2401   -0.2783   -2.1564 H   0  0  0  0  0  0  0  0  0  0  0  0
    0.3788   -1.7311   -2.7594 H   0  0  0  0  0  0  0  0  0  0  0  0
   -0.6991    0.0716    0.4626 H   0  0  0  0  0  0  0  0  0  0  0  0
   -1.7954   -1.2352   -2.0622 H   0  0  0  0  0  0  0  0  0  0  0  0
   -3.5071    0.1719   -3.1313 H   0  0  0  0  0  0  0  0  0  0  0  0
   -5.4547    1.7044   -2.9490 H   0  0  0  0  0  0  0  0  0  0  0  0
   -2.7046    0.7318    1.1114 H   0  0  0  0  0  0  0  0  0  0  0  0
   -4.5542    2.5128    2.3387 H   0  0  0  0  0  0  0  0  0  0  0  0
   -6.6563    3.8213    1.3307 H   0  0  0  0  0  0  0  0  0  0  0  0
   -6.8560    3.2720   -1.1856 H   0  0  0  0  0  0  0  0  0  0  0  0
    3.6816   -0.5503   -0.9742 H   0  0  0  0  0  0  0  0  0  0  0  0
    4.7530    1.6827   -1.0873 H   0  0  0  0  0  0  0  0  0  0  0  0
    0.8963    0.9528    2.0105 H   0  0  0  0  0  0  0  0  0  0  0  0
    1.3526    3.7067    2.6224 H   0  0  0  0  0  0  0  0  0  0  0  0
    3.1654    5.4317    1.6810 H   0  0  0  0  0  0  0  0  0  0  0  0
    4.6446    4.2245   -0.0592 H   0  0  0  0  0  0  0  0  0  0  0  0
  1  2  1  0
  2  3  2  0
  3  4  1  0
  4  5  1  0
  5  6  1  0
  6  7  1  0
  5  8  1  6
  5  9  1  0
  9 10  2  0
 10 11  1  0
 11 12  2  0
 12 13  1  0
 13 14  2  0
 14 15  1  0
 15 16  2  0
 15 17  1  0
 17 18  2  0
 18 19  1  0
  4 20  1  0
 20 21  2  0
 21 22  1  0
 22 23  2  0
 23 24  1  0
 24 25  2  0
 24 26  1  0
 26 27  2  0
 27 28  1  0
  7  2  1  0
 16 11  1  0
 25 20  1  0
 19 14  1  0
 28 23  1  0
  1 29  1  0
  1 30  1  0
  1 31  1  0
  3 32  1  0
  4 33  1  1
  6 34  1  0
  6 35  1  0
  7 36  1  0
  7 37  1  0
  8 38  1  0
  8 39  1  0
  8 40  1  0
  9 41  1  0
 10 42  1  0
 12 43  1  0
 13 44  1  0
 16 45  1  0
 17 46  1  0
 18 47  1  0
 19 48  1  0
 21 49  1  0
 22 50  1  0
 25 51  1  0
 26 52  1  0
 27 53  1  0
 28 54  1  0
M  END
$$$$
