
     RDKit          3D

 80 84  0  0  0  0  0  0  0  0999 V2000
   -6.9395    1.5382   -0.2417 C   0  0  0  0  0  0  0  0  0  0  0  0
   -6.2141    1.5750    0.8834 C   0  0  0  0  0  0  0  0  0  0  0  0
   -6.1326    0.3968    1.8432 C   0  0  0  0  0  0  0  0  0  0  0  0
   -5.6652   -0.8542    1.1046 C   0  0  0  0  0  0  0  0  0  0  0  0
   -6.2200   -2.1361    1.1698 C   0  0  0  0  0  0  0  0  0  0  0  0
   -5.5172   -3.0027    0.4083 N   0  0  0  0  0  0  0  0  0  0  0  0
   -4.5149   -2.2946   -0.1334 C   0  0  0  0  0  0  0  0  0  0  0  0
   -4.5611   -0.9860    0.2692 C   0  0  0  0  0  0  0  0  0  0  0  0
   -3.5996   -0.0622   -0.1496 C   0  0  0  0  0  0  0  0  0  0  0  0
   -2.5642   -0.5017   -1.0052 C   0  0  0  0  0  0  0  0  0  0  0  0
   -2.5490   -1.8587   -1.4358 C   0  0  0  0  0  0  0  0  0  0  0  0
   -3.5248   -2.7652   -0.9900 C   0  0  0  0  0  0  0  0  0  0  0  0
   -1.5377    0.4859   -1.4262 C   0  0  0  0  0  0  0  0  0  0  0  0
   -0.3317    0.1530   -1.9145 C   0  0  0  0  0  0  0  0  0  0  0  0
    0.7301    1.1872   -2.2928 C   0  0  1  0  0  0  0  0  0  0  0  0
    0.1589    2.0565   -3.4432 C   0  0  0  0  0  0  0  0  0  0  0  0
    1.0542    2.0794   -1.0656 C   0  0  0  0  0  0  0  0  0  0  0  0
    2.1742    3.0987   -1.3350 C   0  0  0  0  0  0  0  0  0  0  0  0
    3.3040    2.5852   -2.2020 C   0  0  0  0  0  0  0  0  0  0  0  0
    3.1996    1.4552   -2.9284 C   0  0  0  0  0  0  0  0  0  0  0  0
    2.0483    0.4853   -2.7890 C   0  0  1  0  0  0  0  0  0  0  0  0
    2.4995   -0.7046   -1.9438 C   0  0  0  0  0  0  0  0  0  0  0  0
    2.2696   -2.0257   -2.4143 C   0  0  0  0  0  0  0  0  0  0  0  0
    2.6431   -3.1418   -1.6475 C   0  0  0  0  0  0  0  0  0  0  0  0
    3.2513   -2.9155   -0.4171 C   0  0  0  0  0  0  0  0  0  0  0  0
    3.4953   -1.6505    0.0477 C   0  0  0  0  0  0  0  0  0  0  0  0
    3.1390   -0.5227   -0.6931 C   0  0  0  0  0  0  0  0  0  0  0  0
    4.0929   -1.7782    1.2964 C   0  0  0  0  0  0  0  0  0  0  0  0
    4.1605   -3.1598    1.5172 C   0  0  0  0  0  0  0  0  0  0  0  0
    3.6531   -3.8406    0.4672 N   0  0  0  0  0  0  0  0  0  0  0  0
    4.4622   -0.6567    2.2668 C   0  0  0  0  0  0  0  0  0  0  0  0
    5.3460    0.3567    1.5472 C   0  0  0  0  0  0  0  0  0  0  0  0
    5.6948    1.5362    2.0771 C   0  0  0  0  0  0  0  0  0  0  0  0
    3.1554   -0.0015    2.7660 C   0  0  0  0  0  0  0  0  0  0  0  0
    5.2414   -1.2125    3.4783 C   0  0  0  0  0  0  0  0  0  0  0  0
    4.5365    3.4338   -2.3518 C   0  0  0  0  0  0  0  0  0  0  0  0
   -7.5224    0.1901    2.4868 C   0  0  0  0  0  0  0  0  0  0  0  0
   -5.1235    0.7153    2.9643 C   0  0  0  0  0  0  0  0  0  0  0  0
   -7.5003    0.6523   -0.5185 H   0  0  0  0  0  0  0  0  0  0  0  0
   -6.9658    2.3997   -0.9006 H   0  0  0  0  0  0  0  0  0  0  0  0
   -5.6658    2.4866    1.1068 H   0  0  0  0  0  0  0  0  0  0  0  0
   -7.0885   -2.4268    1.7455 H   0  0  0  0  0  0  0  0  0  0  0  0
   -5.7130   -4.0204    0.2791 H   0  0  0  0  0  0  0  0  0  0  0  0
   -3.6366    0.9661    0.1836 H   0  0  0  0  0  0  0  0  0  0  0  0
   -1.8026   -2.2251   -2.1256 H   0  0  0  0  0  0  0  0  0  0  0  0
   -3.5069   -3.7989   -1.3097 H   0  0  0  0  0  0  0  0  0  0  0  0
   -1.7711    1.5325   -1.2778 H   0  0  0  0  0  0  0  0  0  0  0  0
   -0.0972   -0.8893   -2.0391 H   0  0  0  0  0  0  0  0  0  0  0  0
    0.9187    2.7616   -3.8390 H   0  0  0  0  0  0  0  0  0  0  0  0
   -0.1770    1.4137   -4.2857 H   0  0  0  0  0  0  0  0  0  0  0  0
   -0.7103    2.6570   -3.1004 H   0  0  0  0  0  0  0  0  0  0  0  0
    0.1553    2.6487   -0.7460 H   0  0  0  0  0  0  0  0  0  0  0  0
    1.3302    1.4455   -0.1986 H   0  0  0  0  0  0  0  0  0  0  0  0
    1.7369    3.9896   -1.8357 H   0  0  0  0  0  0  0  0  0  0  0  0
    2.5851    3.4359   -0.3588 H   0  0  0  0  0  0  0  0  0  0  0  0
    4.0263    1.1588   -3.5688 H   0  0  0  0  0  0  0  0  0  0  0  0
    1.8513    0.1065   -3.8171 H   0  0  0  0  0  0  0  0  0  0  0  0
    1.7819   -2.1892   -3.3677 H   0  0  0  0  0  0  0  0  0  0  0  0
    2.4524   -4.1473   -2.0004 H   0  0  0  0  0  0  0  0  0  0  0  0
    3.3676    0.4643   -0.3235 H   0  0  0  0  0  0  0  0  0  0  0  0
    4.5442   -3.6459    2.4036 H   0  0  0  0  0  0  0  0  0  0  0  0
    3.5721   -4.8771    0.3761 H   0  0  0  0  0  0  0  0  0  0  0  0
    5.7393    0.1151    0.5628 H   0  0  0  0  0  0  0  0  0  0  0  0
    6.3308    2.2130    1.5167 H   0  0  0  0  0  0  0  0  0  0  0  0
    5.3574    1.8390    3.0612 H   0  0  0  0  0  0  0  0  0  0  0  0
    2.6382    0.5378    1.9465 H   0  0  0  0  0  0  0  0  0  0  0  0
    3.3503    0.7229    3.5831 H   0  0  0  0  0  0  0  0  0  0  0  0
    2.4623   -0.7732    3.1615 H   0  0  0  0  0  0  0  0  0  0  0  0
    4.6208   -1.9342    4.0508 H   0  0  0  0  0  0  0  0  0  0  0  0
    5.5273   -0.3970    4.1745 H   0  0  0  0  0  0  0  0  0  0  0  0
    6.1699   -1.7220    3.1440 H   0  0  0  0  0  0  0  0  0  0  0  0
    4.5978    3.8236   -3.3896 H   0  0  0  0  0  0  0  0  0  0  0  0
    4.5160    4.2946   -1.6501 H   0  0  0  0  0  0  0  0  0  0  0  0
    5.4434    2.8282   -2.1334 H   0  0  0  0  0  0  0  0  0  0  0  0
   -7.4810   -0.5893    3.2785 H   0  0  0  0  0  0  0  0  0  0  0  0
   -8.2701   -0.1224    1.7260 H   0  0  0  0  0  0  0  0  0  0  0  0
   -7.8793    1.1338    2.9542 H   0  0  0  0  0  0  0  0  0  0  0  0
   -4.1167    0.9268    2.5480 H   0  0  0  0  0  0  0  0  0  0  0  0
   -5.0347   -0.1429    3.6650 H   0  0  0  0  0  0  0  0  0  0  0  0
   -5.4511    1.6055    3.5452 H   0  0  0  0  0  0  0  0  0  0  0  0
  1  2  2  3
  2  3  1  0
  3  4  1  0
  4  5  2  0
  5  6  1  0
  6  7  1  0
  7  8  2  0
  8  9  1  0
  9 10  2  0
 10 11  1  0
 11 12  2  0
 10 13  1  0
 13 14  2  0
 14 15  1  0
 15 16  1  6
 15 17  1  0
 17 18  1  0
 18 19  1  0
 19 20  2  0
 20 21  1  0
 21 22  1  0
 22 23  2  0
 23 24  1  0
 24 25  2  0
 25 26  1  0
 26 27  2  0
 26 28  1  0
 28 29  2  0
 29 30  1  0
 28 31  1  0
 31 32  1  0
 32 33  2  3
 31 34  1  0
 31 35  1  0
 19 36  1  0
  3 37  1  0
  3 38  1  0
  8  4  1  0
 21 15  1  0
 27 22  1  0
 12  7  1  0
 30 25  1  0
  1 39  1  0
  1 40  1  0
  2 41  1  0
  5 42  1  0
  6 43  1  0
  9 44  1  0
 11 45  1  0
 12 46  1  0
 13 47  1  0
 14 48  1  0
 16 49  1  0
 16 50  1  0
 16 51  1  0
 17 52  1  0
 17 53  1  0
 18 54  1  0
 18 55  1  0
 20 56  1  0
 21 57  1  6
 23 58  1  0
 24 59  1  0
 27 60  1  0
 29 61  1  0
 30 62  1  0
 32 63  1  0
 33 64  1  0
 33 65  1  0
 34 66  1  0
 34 67  1  0
 34 68  1  0
 35 69  1  0
 35 70  1  0
 35 71  1  0
 36 72  1  0
 36 73  1  0
 36 74  1  0
 37 75  1  0
 37 76  1  0
 37 77  1  0
 38 78  1  0
 38 79  1  0
 38 80  1  0
M  END
$$$$
