
     RDKit          3D

 80 84  0  0  0  0  0  0  0  0999 V2000
   -7.1716   -0.4084    2.7835 C   0  0  0  0  0  0  0  0  0  0  0  0
   -6.9498   -0.5931    1.4753 C   0  0  0  0  0  0  0  0  0  0  0  0
   -7.5086    0.3246    0.3941 C   0  0  0  0  0  0  0  0  0  0  0  0
   -6.9277   -0.0849   -0.9592 C   0  0  0  0  0  0  0  0  0  0  0  0
   -7.6247   -0.3292   -2.1485 C   0  0  0  0  0  0  0  0  0  0  0  0
   -6.7721   -0.6142   -3.1565 N   0  0  0  0  0  0  0  0  0  0  0  0
   -5.5391   -0.5477   -2.6324 C   0  0  0  0  0  0  0  0  0  0  0  0
   -5.5855   -0.2236   -1.3017 C   0  0  0  0  0  0  0  0  0  0  0  0
   -4.4169   -0.0834   -0.5479 C   0  0  0  0  0  0  0  0  0  0  0  0
   -3.1735   -0.2971   -1.1825 C   0  0  0  0  0  0  0  0  0  0  0  0
   -3.1426   -0.6190   -2.5671 C   0  0  0  0  0  0  0  0  0  0  0  0
   -4.3343   -0.7499   -3.2994 C   0  0  0  0  0  0  0  0  0  0  0  0
   -1.9364   -0.1305   -0.3849 C   0  0  0  0  0  0  0  0  0  0  0  0
   -0.7775   -0.7404   -0.6817 C   0  0  0  0  0  0  0  0  0  0  0  0
    0.5021   -0.5469    0.1348 C   0  0  2  0  0  0  0  0  0  0  0  0
    0.2479   -1.0524    1.5756 C   0  0  0  0  0  0  0  0  0  0  0  0
    0.8917    0.9522    0.1686 C   0  0  0  0  0  0  0  0  0  0  0  0
    1.1622    1.5121   -1.2380 C   0  0  0  0  0  0  0  0  0  0  0  0
    1.9406    0.5735   -2.1394 C   0  0  0  0  0  0  0  0  0  0  0  0
    2.0898   -0.7381   -1.8586 C   0  0  0  0  0  0  0  0  0  0  0  0
    1.6653   -1.3561   -0.5419 C   0  0  1  0  0  0  0  0  0  0  0  0
    2.8876   -1.5700    0.3470 C   0  0  0  0  0  0  0  0  0  0  0  0
    3.0113   -2.7772    1.0856 C   0  0  0  0  0  0  0  0  0  0  0  0
    4.1122   -2.9984    1.9299 C   0  0  0  0  0  0  0  0  0  0  0  0
    5.0795   -2.0018    2.0182 C   0  0  0  0  0  0  0  0  0  0  0  0
    4.9797   -0.8328    1.3122 C   0  0  0  0  0  0  0  0  0  0  0  0
    3.8953   -0.5815    0.4711 C   0  0  0  0  0  0  0  0  0  0  0  0
    6.0940   -0.0646    1.6283 C   0  0  0  0  0  0  0  0  0  0  0  0
    6.8101   -0.8368    2.5492 C   0  0  0  0  0  0  0  0  0  0  0  0
    6.1889   -2.0157    2.7733 N   0  0  0  0  0  0  0  0  0  0  0  0
    6.4160    1.3498    1.1513 C   0  0  0  0  0  0  0  0  0  0  0  0
    6.2768    1.4438   -0.3616 C   0  0  0  0  0  0  0  0  0  0  0  0
    6.9408    0.6365   -1.1984 C   0  0  0  0  0  0  0  0  0  0  0  0
    5.4304    2.3289    1.8188 C   0  0  0  0  0  0  0  0  0  0  0  0
    7.8524    1.7655    1.5387 C   0  0  0  0  0  0  0  0  0  0  0  0
    2.4737    1.1023   -3.4422 C   0  0  0  0  0  0  0  0  0  0  0  0
   -7.1242    1.7955    0.6631 C   0  0  0  0  0  0  0  0  0  0  0  0
   -9.0488    0.2029    0.3921 C   0  0  0  0  0  0  0  0  0  0  0  0
   -7.7671    0.4214    3.1480 H   0  0  0  0  0  0  0  0  0  0  0  0
   -6.7547   -1.1030    3.5056 H   0  0  0  0  0  0  0  0  0  0  0  0
   -6.3589   -1.4584    1.1860 H   0  0  0  0  0  0  0  0  0  0  0  0
   -8.6978   -0.2955   -2.2782 H   0  0  0  0  0  0  0  0  0  0  0  0
   -7.0258   -0.8314   -4.1459 H   0  0  0  0  0  0  0  0  0  0  0  0
   -4.4601    0.1702    0.5028 H   0  0  0  0  0  0  0  0  0  0  0  0
   -2.2050   -0.7423   -3.0914 H   0  0  0  0  0  0  0  0  0  0  0  0
   -4.3140   -0.9908   -4.3545 H   0  0  0  0  0  0  0  0  0  0  0  0
   -1.9970    0.4909    0.4993 H   0  0  0  0  0  0  0  0  0  0  0  0
   -0.7407   -1.4061   -1.5342 H   0  0  0  0  0  0  0  0  0  0  0  0
    1.1341   -0.8837    2.2233 H   0  0  0  0  0  0  0  0  0  0  0  0
    0.0124   -2.1384    1.5687 H   0  0  0  0  0  0  0  0  0  0  0  0
   -0.5995   -0.5155    2.0504 H   0  0  0  0  0  0  0  0  0  0  0  0
    0.0907    1.5574    0.6451 H   0  0  0  0  0  0  0  0  0  0  0  0
    1.7926    1.0991    0.7997 H   0  0  0  0  0  0  0  0  0  0  0  0
    0.1924    1.7398   -1.7308 H   0  0  0  0  0  0  0  0  0  0  0  0
    1.7181    2.4691   -1.1364 H   0  0  0  0  0  0  0  0  0  0  0  0
    2.6316   -1.3723   -2.5563 H   0  0  0  0  0  0  0  0  0  0  0  0
    1.2704   -2.3660   -0.7963 H   0  0  0  0  0  0  0  0  0  0  0  0
    2.2490   -3.5427    1.0127 H   0  0  0  0  0  0  0  0  0  0  0  0
    4.2015   -3.9156    2.4975 H   0  0  0  0  0  0  0  0  0  0  0  0
    3.8355    0.3465   -0.0765 H   0  0  0  0  0  0  0  0  0  0  0  0
    7.7328   -0.5537    3.0373 H   0  0  0  0  0  0  0  0  0  0  0  0
    6.5057   -2.7763    3.4150 H   0  0  0  0  0  0  0  0  0  0  0  0
    5.6098    2.1864   -0.7930 H   0  0  0  0  0  0  0  0  0  0  0  0
    7.6128   -0.1297   -0.8244 H   0  0  0  0  0  0  0  0  0  0  0  0
    6.8056    0.7369   -2.2704 H   0  0  0  0  0  0  0  0  0  0  0  0
    5.5074    2.2655    2.9260 H   0  0  0  0  0  0  0  0  0  0  0  0
    5.6488    3.3751    1.5130 H   0  0  0  0  0  0  0  0  0  0  0  0
    4.3820    2.0992    1.5324 H   0  0  0  0  0  0  0  0  0  0  0  0
    7.9658    1.8189    2.6430 H   0  0  0  0  0  0  0  0  0  0  0  0
    8.0931    2.7687    1.1239 H   0  0  0  0  0  0  0  0  0  0  0  0
    8.5964    1.0401    1.1450 H   0  0  0  0  0  0  0  0  0  0  0  0
    2.2307    2.1789   -3.5649 H   0  0  0  0  0  0  0  0  0  0  0  0
    3.5781    0.9854   -3.4684 H   0  0  0  0  0  0  0  0  0  0  0  0
    2.0255    0.5425   -4.2904 H   0  0  0  0  0  0  0  0  0  0  0  0
   -7.4442    2.4394   -0.1847 H   0  0  0  0  0  0  0  0  0  0  0  0
   -6.0279    1.9089    0.7890 H   0  0  0  0  0  0  0  0  0  0  0  0
   -7.6160    2.1795    1.5817 H   0  0  0  0  0  0  0  0  0  0  0  0
   -9.4978    0.8834   -0.3631 H   0  0  0  0  0  0  0  0  0  0  0  0
   -9.4730    0.4802    1.3807 H   0  0  0  0  0  0  0  0  0  0  0  0
   -9.3577   -0.8405    0.1648 H   0  0  0  0  0  0  0  0  0  0  0  0
  1  2  2  3
  2  3  1  0
  3  4  1  0
  4  5  2  0
  5  6  1  0
  6  7  1  0
  7  8  2  0
  8  9  1  0
  9 10  2  0
 10 11  1  0
 11 12  2  0
 10 13  1  0
 13 14  2  0
 14 15  1  0
 15 16  1  1
 15 17  1  0
 17 18  1  0
 18 19  1  0
 19 20  2  0
 20 21  1  0
 21 22  1  0
 22 23  2  0
 23 24  1  0
 24 25  2  0
 25 26  1  0
 26 27  2  0
 26 28  1  0
 28 29  2  0
 29 30  1  0
 28 31  1  0
 31 32  1  0
 32 33  2  3
 31 34  1  0
 31 35  1  0
 19 36  1  0
  3 37  1  0
  3 38  1  0
  8  4  1  0
 21 15  1  0
 27 22  1  0
 12  7  1  0
 30 25  1  0
  1 39  1  0
  1 40  1  0
  2 41  1  0
  5 42  1  0
  6 43  1  0
  9 44  1  0
 11 45  1  0
 12 46  1  0
 13 47  1  0
 14 48  1  0
 16 49  1  0
 16 50  1  0
 16 51  1  0
 17 52  1  0
 17 53  1  0
 18 54  1  0
 18 55  1  0
 20 56  1  0
 21 57  1  6
 23 58  1  0
 24 59  1  0
 27 60  1  0
 29 61  1  0
 30 62  1  0
 32 63  1  0
 33 64  1  0
 33 65  1  0
 34 66  1  0
 34 67  1  0
 34 68  1  0
 35 69  1  0
 35 70  1  0
 35 71  1  0
 36 72  1  0
 36 73  1  0
 36 74  1  0
 37 75  1  0
 37 76  1  0
 37 77  1  0
 38 78  1  0
 38 79  1  0
 38 80  1  0
M  END
$$$$
