
     RDKit          3D

 54 58  0  0  0  0  0  0  0  0999 V2000
    3.6854   -2.4692   -1.9413 C   0  0  0  0  0  0  0  0  0  0  0  0
    2.6500   -2.3148   -0.8600 C   0  0  0  0  0  0  0  0  0  0  0  0
    2.7562   -1.2845    0.0048 C   0  0  0  0  0  0  0  0  0  0  0  0
    1.7960   -1.0847    1.1627 C   0  0  2  0  0  0  0  0  0  0  0  0
    0.3844   -1.7107    0.8863 C   0  0  1  0  0  0  0  0  0  0  0  0
    0.6180   -3.1709    0.4220 C   0  0  0  0  0  0  0  0  0  0  0  0
    1.4477   -3.2368   -0.8688 C   0  0  0  0  0  0  0  0  0  0  0  0
   -0.4413   -1.7319    2.1952 C   0  0  0  0  0  0  0  0  0  0  0  0
   -0.3776   -0.9350   -0.1866 C   0  0  0  0  0  0  0  0  0  0  0  0
   -1.6252   -1.2576   -0.5687 C   0  0  0  0  0  0  0  0  0  0  0  0
   -2.4124   -0.5249   -1.5958 C   0  0  0  0  0  0  0  0  0  0  0  0
   -3.6814   -1.0477   -1.9587 C   0  0  0  0  0  0  0  0  0  0  0  0
   -4.4942   -0.3945   -2.9032 C   0  0  0  0  0  0  0  0  0  0  0  0
   -4.0155    0.7817   -3.4739 C   0  0  0  0  0  0  0  0  0  0  0  0
   -2.7961    1.2990   -3.1357 C   0  0  0  0  0  0  0  0  0  0  0  0
   -1.9669    0.6815   -2.1999 C   0  0  0  0  0  0  0  0  0  0  0  0
   -2.6214    2.4519   -3.8701 C   0  0  0  0  0  0  0  0  0  0  0  0
   -3.7803    2.5772   -4.6303 C   0  0  0  0  0  0  0  0  0  0  0  0
   -4.6286    1.5542   -4.3853 N   0  0  0  0  0  0  0  0  0  0  0  0
    1.7502    0.3712    1.6191 C   0  0  0  0  0  0  0  0  0  0  0  0
    1.8071    1.4538    0.6930 C   0  0  0  0  0  0  0  0  0  0  0  0
    1.7366    2.7877    1.1343 C   0  0  0  0  0  0  0  0  0  0  0  0
    1.6164    3.0163    2.5006 C   0  0  0  0  0  0  0  0  0  0  0  0
    1.5737    1.9871    3.3996 C   0  0  0  0  0  0  0  0  0  0  0  0
    1.6398    0.6557    3.0013 C   0  0  0  0  0  0  0  0  0  0  0  0
    1.4596    2.5408    4.6556 C   0  0  0  0  0  0  0  0  0  0  0  0
    1.4378    3.9161    4.4449 C   0  0  0  0  0  0  0  0  0  0  0  0
    1.5348    4.2021    3.1264 N   0  0  0  0  0  0  0  0  0  0  0  0
    3.5556   -1.6695   -2.6972 H   0  0  0  0  0  0  0  0  0  0  0  0
    3.5905   -3.4538   -2.4400 H   0  0  0  0  0  0  0  0  0  0  0  0
    4.7055   -2.4025   -1.5106 H   0  0  0  0  0  0  0  0  0  0  0  0
    3.6346   -0.6441   -0.0450 H   0  0  0  0  0  0  0  0  0  0  0  0
    2.2561   -1.6659    1.9942 H   0  0  0  0  0  0  0  0  0  0  0  0
    1.1568   -3.7337    1.2178 H   0  0  0  0  0  0  0  0  0  0  0  0
   -0.3476   -3.6966    0.2555 H   0  0  0  0  0  0  0  0  0  0  0  0
    0.8036   -2.9636   -1.7329 H   0  0  0  0  0  0  0  0  0  0  0  0
    1.7838   -4.2854   -1.0204 H   0  0  0  0  0  0  0  0  0  0  0  0
   -1.3669   -2.3328    2.0805 H   0  0  0  0  0  0  0  0  0  0  0  0
   -0.7410   -0.7043    2.4894 H   0  0  0  0  0  0  0  0  0  0  0  0
    0.1441   -2.1830    3.0253 H   0  0  0  0  0  0  0  0  0  0  0  0
    0.1278   -0.1224   -0.6703 H   0  0  0  0  0  0  0  0  0  0  0  0
   -2.1023   -2.1155   -0.1054 H   0  0  0  0  0  0  0  0  0  0  0  0
   -4.0454   -1.9633   -1.5047 H   0  0  0  0  0  0  0  0  0  0  0  0
   -5.4622   -0.7948   -3.1760 H   0  0  0  0  0  0  0  0  0  0  0  0
   -1.0227    1.1441   -1.9610 H   0  0  0  0  0  0  0  0  0  0  0  0
   -1.7681    3.1153   -3.8616 H   0  0  0  0  0  0  0  0  0  0  0  0
   -3.9879    3.3768   -5.3275 H   0  0  0  0  0  0  0  0  0  0  0  0
   -5.5665    1.3990   -4.8193 H   0  0  0  0  0  0  0  0  0  0  0  0
    1.9178    1.2709   -0.3680 H   0  0  0  0  0  0  0  0  0  0  0  0
    1.7801    3.6106    0.4311 H   0  0  0  0  0  0  0  0  0  0  0  0
    1.6027   -0.1353    3.7398 H   0  0  0  0  0  0  0  0  0  0  0  0
    1.3995    2.0209    5.6033 H   0  0  0  0  0  0  0  0  0  0  0  0
    1.3567    4.6661    5.2208 H   0  0  0  0  0  0  0  0  0  0  0  0
    1.5427    5.1497    2.6880 H   0  0  0  0  0  0  0  0  0  0  0  0
  1  2  1  0
  2  3  2  0
  3  4  1  0
  4  5  1  0
  5  6  1  0
  6  7  1  0
  5  8  1  1
  5  9  1  0
  9 10  2  0
 10 11  1  0
 11 12  2  0
 12 13  1  0
 13 14  2  0
 14 15  1  0
 15 16  2  0
 15 17  1  0
 17 18  2  0
 18 19  1  0
  4 20  1  0
 20 21  2  0
 21 22  1  0
 22 23  2  0
 23 24  1  0
 24 25  2  0
 24 26  1  0
 26 27  2  0
 27 28  1  0
  7  2  1  0
 16 11  1  0
 25 20  1  0
 19 14  1  0
 28 23  1  0
  1 29  1  0
  1 30  1  0
  1 31  1  0
  3 32  1  0
  4 33  1  1
  6 34  1  0
  6 35  1  0
  7 36  1  0
  7 37  1  0
  8 38  1  0
  8 39  1  0
  8 40  1  0
  9 41  1  0
 10 42  1  0
 12 43  1  0
 13 44  1  0
 16 45  1  0
 17 46  1  0
 18 47  1  0
 19 48  1  0
 21 49  1  0
 22 50  1  0
 25 51  1  0
 26 52  1  0
 27 53  1  0
 28 54  1  0
M  END
$$$$
