
     RDKit          3D

 49 50  0  0  0  0  0  0  0  0999 V2000
   -1.3408   -4.3657    2.6554 C   0  0  0  0  0  0  0  0  0  0  0  0
   -1.2155   -3.0653    2.1225 O   0  0  0  0  0  0  0  0  0  0  0  0
   -0.8931   -3.1226    0.7413 C   0  0  1  0  0  0  0  0  0  0  0  0
   -2.1649   -3.1906   -0.0680 C   0  0  0  0  0  0  0  0  0  0  0  0
   -2.8987   -2.0859   -0.2444 C   0  0  0  0  0  0  0  0  0  0  0  0
   -2.5303   -0.8129    0.4717 C   0  0  1  0  0  0  0  0  0  0  0  0
   -0.9894   -0.5458    0.4740 C   0  0  1  0  0  0  0  0  0  0  0  0
   -0.1030   -1.8451    0.3274 C   0  0  2  0  0  0  0  0  0  0  0  0
    0.3314   -2.0010   -1.0081 O   0  0  0  0  0  0  0  0  0  0  0  0
    1.1691   -1.7218    1.2055 C   0  0  0  0  0  0  0  0  0  0  0  0
    1.8907   -0.5242    0.9124 O   0  0  0  0  0  0  0  0  0  0  0  0
    2.7631   -0.3801   -0.1737 C   0  0  0  0  0  0  0  0  0  0  0  0
    3.0767   -1.3817   -0.8743 O   0  0  0  0  0  0  0  0  0  0  0  0
    3.3145    0.9531   -0.4971 C   0  0  0  0  0  0  0  0  0  0  0  0
    3.0894    2.0419    0.3645 C   0  0  0  0  0  0  0  0  0  0  0  0
    3.5876    3.3094    0.0481 C   0  0  0  0  0  0  0  0  0  0  0  0
    4.3166    3.5024   -1.1274 C   0  0  0  0  0  0  0  0  0  0  0  0
    4.5508    2.4276   -1.9880 C   0  0  0  0  0  0  0  0  0  0  0  0
    4.0543    1.1580   -1.6767 C   0  0  0  0  0  0  0  0  0  0  0  0
   -0.6443    0.3775   -0.5678 O   0  0  0  0  0  0  0  0  0  0  0  0
   -0.3074    1.7205   -0.3589 C   0  0  0  0  0  0  0  0  0  0  0  0
   -0.3266    2.2252    0.7963 O   0  0  0  0  0  0  0  0  0  0  0  0
    0.0406    2.5730   -1.5306 C   0  0  0  0  0  0  0  0  0  0  0  0
   -3.2462    0.2765   -0.1125 O   0  0  0  0  0  0  0  0  0  0  0  0
   -3.4969    1.4800    0.5558 C   0  0  0  0  0  0  0  0  0  0  0  0
   -3.1882    1.6215    1.7702 O   0  0  0  0  0  0  0  0  0  0  0  0
   -4.1776    2.5916   -0.1667 C   0  0  0  0  0  0  0  0  0  0  0  0
   -1.6851   -4.2855    3.7067 H   0  0  0  0  0  0  0  0  0  0  0  0
   -0.3577   -4.8857    2.6605 H   0  0  0  0  0  0  0  0  0  0  0  0
   -2.0949   -4.9646    2.0977 H   0  0  0  0  0  0  0  0  0  0  0  0
   -0.2602   -4.0090    0.4909 H   0  0  0  0  0  0  0  0  0  0  0  0
   -2.4309   -4.1071   -0.5856 H   0  0  0  0  0  0  0  0  0  0  0  0
   -3.7803   -2.1209   -0.8777 H   0  0  0  0  0  0  0  0  0  0  0  0
   -2.8694   -0.9465    1.5241 H   0  0  0  0  0  0  0  0  0  0  0  0
   -0.7684   -0.0870    1.4642 H   0  0  0  0  0  0  0  0  0  0  0  0
   -0.4550   -1.9516   -1.6109 H   0  0  0  0  0  0  0  0  0  0  0  0
    0.8852   -1.6864    2.2787 H   0  0  0  0  0  0  0  0  0  0  0  0
    1.8270   -2.6090    1.0719 H   0  0  0  0  0  0  0  0  0  0  0  0
    2.5265    1.9165    1.2808 H   0  0  0  0  0  0  0  0  0  0  0  0
    3.4065    4.1429    0.7143 H   0  0  0  0  0  0  0  0  0  0  0  0
    4.7002    4.4847   -1.3712 H   0  0  0  0  0  0  0  0  0  0  0  0
    5.1156    2.5786   -2.8990 H   0  0  0  0  0  0  0  0  0  0  0  0
    4.2413    0.3410   -2.3624 H   0  0  0  0  0  0  0  0  0  0  0  0
   -0.8913    2.9305   -2.0156 H   0  0  0  0  0  0  0  0  0  0  0  0
    0.6311    1.9811   -2.2608 H   0  0  0  0  0  0  0  0  0  0  0  0
    0.6452    3.4470   -1.2079 H   0  0  0  0  0  0  0  0  0  0  0  0
   -4.0124    2.4891   -1.2597 H   0  0  0  0  0  0  0  0  0  0  0  0
   -3.7685    3.5688    0.1662 H   0  0  0  0  0  0  0  0  0  0  0  0
   -5.2667    2.5575    0.0433 H   0  0  0  0  0  0  0  0  0  0  0  0
  1  2  1  0
  2  3  1  0
  3  4  1  0
  4  5  2  0
  5  6  1  0
  6  7  1  0
  7  8  1  0
  8  9  1  6
  8 10  1  0
 10 11  1  0
 11 12  1  0
 12 13  2  0
 12 14  1  0
 14 15  2  0
 15 16  1  0
 16 17  2  0
 17 18  1  0
 18 19  2  0
  7 20  1  0
 20 21  1  0
 21 22  2  0
 21 23  1  0
  6 24  1  0
 24 25  1  0
 25 26  2  0
 25 27  1  0
  8  3  1  0
 19 14  1  0
  1 28  1  0
  1 29  1  0
  1 30  1  0
  3 31  1  1
  4 32  1  0
  5 33  1  0
  6 34  1  1
  7 35  1  1
  9 36  1  0
 10 37  1  0
 10 38  1  0
 15 39  1  0
 16 40  1  0
 17 41  1  0
 18 42  1  0
 19 43  1  0
 23 44  1  0
 23 45  1  0
 23 46  1  0
 27 47  1  0
 27 48  1  0
 27 49  1  0
M  END
$$$$
