
     RDKit          3D

109111  0  0  0  0  0  0  0  0999 V2000
   14.4061   -0.3106   -1.4246 C   0  0  0  0  0  0  0  0  0  0  0  0
   13.6945   -0.6993   -0.1265 C   0  0  0  0  0  0  0  0  0  0  0  0
   12.1642   -0.6537   -0.2475 C   0  0  0  0  0  0  0  0  0  0  0  0
   11.6230    0.7785   -0.3800 C   0  0  0  0  0  0  0  0  0  0  0  0
   10.0933    0.7940   -0.2631 C   0  0  0  0  0  0  0  0  0  0  0  0
    9.5345    2.2159   -0.4242 C   0  0  0  0  0  0  0  0  0  0  0  0
    7.9949    2.2574   -0.3193 C   0  0  0  0  0  0  0  0  0  0  0  0
    7.4669    2.7496    1.0435 C   0  0  0  0  0  0  0  0  0  0  0  0
    7.8657    1.8959    2.2629 C   0  0  0  0  0  0  0  0  0  0  0  0
    7.3832    0.4295    2.2417 C   0  0  0  0  0  0  0  0  0  0  0  0
    5.9444    0.2041    2.7820 C   0  0  1  0  0  0  0  0  0  0  0  0
    4.8438    0.3009    1.6994 C   0  0  1  0  0  0  0  0  0  0  0  0
    5.0465   -0.6608    0.5216 C   0  0  0  0  0  0  0  0  0  0  0  0
    3.6786   -1.2177    0.2835 C   0  0  0  0  0  0  0  0  0  0  0  0
    3.0518   -1.0976    1.6616 C   0  0  1  0  0  0  0  0  0  0  0  0
    3.5842    0.0450    2.2902 O   0  0  0  0  0  0  0  0  0  0  0  0
    1.5109   -1.0517    1.6454 C   0  0  1  0  0  0  0  0  0  0  0  0
    0.9301    0.2758    1.1764 C   0  0  0  0  0  0  0  0  0  0  0  0
   -0.3039   -0.1230    0.4111 C   0  0  0  0  0  0  0  0  0  0  0  0
   -0.2833   -1.6572    0.4047 C   0  0  1  0  0  0  0  0  0  0  0  0
    1.0001   -2.0709    0.8224 O   0  0  0  0  0  0  0  0  0  0  0  0
   -1.3710   -2.3046    1.3153 C   0  0  1  0  0  0  0  0  0  0  0  0
   -2.7055   -2.5738    0.5741 C   0  0  0  0  0  0  0  0  0  0  0  0
   -3.5721   -1.3236    0.3224 C   0  0  0  0  0  0  0  0  0  0  0  0
   -3.4604   -0.7465   -1.0995 C   0  0  0  0  0  0  0  0  0  0  0  0
   -4.0729   -1.6664   -2.1774 C   0  0  0  0  0  0  0  0  0  0  0  0
   -4.3627   -0.9293   -3.4984 C   0  0  0  0  0  0  0  0  0  0  0  0
   -5.5222    0.0870   -3.4441 C   0  0  0  0  0  0  0  0  0  0  0  0
   -6.8876   -0.5400   -3.0958 C   0  0  0  0  0  0  0  0  0  0  0  0
   -7.2641   -0.3361   -1.6179 C   0  0  0  0  0  0  0  0  0  0  0  0
   -8.5810   -1.0372   -1.2460 C   0  0  0  0  0  0  0  0  0  0  0  0
   -9.8120   -0.1866   -1.5969 C   0  0  0  0  0  0  0  0  0  0  0  0
  -11.1068   -0.8909   -1.1629 C   0  0  0  0  0  0  0  0  0  0  0  0
  -12.3455   -0.0004   -1.3397 C   0  0  0  0  0  0  0  0  0  0  0  0
  -12.3202    1.2010   -0.4336 C   0  0  0  0  0  0  0  0  0  0  0  0
  -12.2805    1.1799    0.8939 C   0  0  0  0  0  0  0  0  0  0  0  0
  -12.1930    2.5799    1.4445 C   0  0  1  0  0  0  0  0  0  0  0  0
  -12.2317    3.4015    0.2796 O   0  0  0  0  0  0  0  0  0  0  0  0
  -12.2952    2.5892   -0.8360 C   0  0  0  0  0  0  0  0  0  0  0  0
  -12.3441    3.0170   -2.0186 O   0  0  0  0  0  0  0  0  0  0  0  0
  -13.3725    2.8915    2.3621 C   0  0  0  0  0  0  0  0  0  0  0  0
   -0.8812   -3.5359    1.7920 O   0  0  0  0  0  0  0  0  0  0  0  0
    5.8680   -1.0647    3.3830 O   0  0  0  0  0  0  0  0  0  0  0  0
   15.4999   -0.4542   -1.3030 H   0  0  0  0  0  0  0  0  0  0  0  0
   14.2270    0.7589   -1.6695 H   0  0  0  0  0  0  0  0  0  0  0  0
   14.0552   -0.9473   -2.2667 H   0  0  0  0  0  0  0  0  0  0  0  0
   14.0338   -0.0375    0.6982 H   0  0  0  0  0  0  0  0  0  0  0  0
   13.9941   -1.7385    0.1315 H   0  0  0  0  0  0  0  0  0  0  0  0
   11.7403   -1.1207    0.6671 H   0  0  0  0  0  0  0  0  0  0  0  0
   11.8338   -1.2631   -1.1160 H   0  0  0  0  0  0  0  0  0  0  0  0
   11.9176    1.1997   -1.3688 H   0  0  0  0  0  0  0  0  0  0  0  0
   12.0556    1.4160    0.4249 H   0  0  0  0  0  0  0  0  0  0  0  0
    9.6594    0.1404   -1.0526 H   0  0  0  0  0  0  0  0  0  0  0  0
    9.8097    0.3840    0.7277 H   0  0  0  0  0  0  0  0  0  0  0  0
    9.9986    2.8964    0.3231 H   0  0  0  0  0  0  0  0  0  0  0  0
    9.8290    2.5866   -1.4295 H   0  0  0  0  0  0  0  0  0  0  0  0
    7.5418    1.2836   -0.5895 H   0  0  0  0  0  0  0  0  0  0  0  0
    7.6233    2.9742   -1.0814 H   0  0  0  0  0  0  0  0  0  0  0  0
    7.8440    3.7820    1.2119 H   0  0  0  0  0  0  0  0  0  0  0  0
    6.3662    2.8381    0.9918 H   0  0  0  0  0  0  0  0  0  0  0  0
    8.9725    1.9019    2.3474 H   0  0  0  0  0  0  0  0  0  0  0  0
    7.4966    2.3968    3.1834 H   0  0  0  0  0  0  0  0  0  0  0  0
    7.5197   -0.0261    1.2459 H   0  0  0  0  0  0  0  0  0  0  0  0
    8.0793   -0.1273    2.9061 H   0  0  0  0  0  0  0  0  0  0  0  0
    5.7143    0.9819    3.5491 H   0  0  0  0  0  0  0  0  0  0  0  0
    4.8055    1.3343    1.3019 H   0  0  0  0  0  0  0  0  0  0  0  0
    5.4329   -0.1379   -0.3788 H   0  0  0  0  0  0  0  0  0  0  0  0
    5.7321   -1.4945    0.7867 H   0  0  0  0  0  0  0  0  0  0  0  0
    3.1471   -0.5946   -0.4687 H   0  0  0  0  0  0  0  0  0  0  0  0
    3.7184   -2.2730   -0.0647 H   0  0  0  0  0  0  0  0  0  0  0  0
    3.3539   -1.9914    2.2575 H   0  0  0  0  0  0  0  0  0  0  0  0
    1.1609   -1.2372    2.6872 H   0  0  0  0  0  0  0  0  0  0  0  0
    1.6277    0.8296    0.5152 H   0  0  0  0  0  0  0  0  0  0  0  0
    0.6761    0.9231    2.0414 H   0  0  0  0  0  0  0  0  0  0  0  0
   -1.2093    0.2989    0.8881 H   0  0  0  0  0  0  0  0  0  0  0  0
   -0.2388    0.2656   -0.6287 H   0  0  0  0  0  0  0  0  0  0  0  0
   -0.4235   -2.0158   -0.6372 H   0  0  0  0  0  0  0  0  0  0  0  0
   -1.5605   -1.6402    2.1917 H   0  0  0  0  0  0  0  0  0  0  0  0
   -2.5114   -3.1401   -0.3605 H   0  0  0  0  0  0  0  0  0  0  0  0
   -3.3068   -3.2546    1.2157 H   0  0  0  0  0  0  0  0  0  0  0  0
   -4.6357   -1.5796    0.5087 H   0  0  0  0  0  0  0  0  0  0  0  0
   -3.3306   -0.5312    1.0617 H   0  0  0  0  0  0  0  0  0  0  0  0
   -2.4040   -0.5422   -1.3568 H   0  0  0  0  0  0  0  0  0  0  0  0
   -3.9842    0.2287   -1.0897 H   0  0  0  0  0  0  0  0  0  0  0  0
   -4.9874   -2.1746   -1.8131 H   0  0  0  0  0  0  0  0  0  0  0  0
   -3.3449   -2.4756   -2.4002 H   0  0  0  0  0  0  0  0  0  0  0  0
   -4.5958   -1.6848   -4.2804 H   0  0  0  0  0  0  0  0  0  0  0  0
   -3.4414   -0.4027   -3.8272 H   0  0  0  0  0  0  0  0  0  0  0  0
   -5.2824    0.9336   -2.7677 H   0  0  0  0  0  0  0  0  0  0  0  0
   -5.6027    0.5369   -4.4573 H   0  0  0  0  0  0  0  0  0  0  0  0
   -7.6645   -0.0551   -3.7235 H   0  0  0  0  0  0  0  0  0  0  0  0
   -6.8923   -1.6219   -3.3504 H   0  0  0  0  0  0  0  0  0  0  0  0
   -7.3285    0.7494   -1.3899 H   0  0  0  0  0  0  0  0  0  0  0  0
   -6.4668   -0.7450   -0.9676 H   0  0  0  0  0  0  0  0  0  0  0  0
   -8.6454   -2.0321   -1.7443 H   0  0  0  0  0  0  0  0  0  0  0  0
   -8.5742   -1.2119   -0.1450 H   0  0  0  0  0  0  0  0  0  0  0  0
   -9.7258    0.7916   -1.0725 H   0  0  0  0  0  0  0  0  0  0  0  0
   -9.8473    0.0002   -2.6924 H   0  0  0  0  0  0  0  0  0  0  0  0
  -11.2391   -1.8086   -1.7778 H   0  0  0  0  0  0  0  0  0  0  0  0
  -11.0318   -1.2115   -0.1010 H   0  0  0  0  0  0  0  0  0  0  0  0
  -13.2529   -0.5970   -1.1084 H   0  0  0  0  0  0  0  0  0  0  0  0
  -12.4208    0.3235   -2.3990 H   0  0  0  0  0  0  0  0  0  0  0  0
  -12.2714    0.2778    1.4937 H   0  0  0  0  0  0  0  0  0  0  0  0
  -11.2287    2.7204    1.9777 H   0  0  0  0  0  0  0  0  0  0  0  0
  -13.3463    2.2283    3.2525 H   0  0  0  0  0  0  0  0  0  0  0  0
  -13.3134    3.9453    2.7032 H   0  0  0  0  0  0  0  0  0  0  0  0
  -14.3316    2.7431    1.8231 H   0  0  0  0  0  0  0  0  0  0  0  0
   -1.3986   -3.7628    2.6080 H   0  0  0  0  0  0  0  0  0  0  0  0
    6.2576   -0.9758    4.2969 H   0  0  0  0  0  0  0  0  0  0  0  0
  1  2  1  0
  2  3  1  0
  3  4  1  0
  4  5  1  0
  5  6  1  0
  6  7  1  0
  7  8  1  0
  8  9  1  0
  9 10  1  0
 10 11  1  0
 11 12  1  0
 12 13  1  0
 13 14  1  0
 14 15  1  0
 15 16  1  0
 15 17  1  0
 17 18  1  0
 18 19  1  0
 19 20  1  0
 20 21  1  0
 20 22  1  0
 22 23  1  0
 23 24  1  0
 24 25  1  0
 25 26  1  0
 26 27  1  0
 27 28  1  0
 28 29  1  0
 29 30  1  0
 30 31  1  0
 31 32  1  0
 32 33  1  0
 33 34  1  0
 34 35  1  0
 35 36  2  0
 36 37  1  0
 37 38  1  0
 38 39  1  0
 39 40  2  0
 37 41  1  0
 22 42  1  0
 11 43  1  0
 16 12  1  0
 21 17  1  0
 39 35  1  0
  1 44  1  0
  1 45  1  0
  1 46  1  0
  2 47  1  0
  2 48  1  0
  3 49  1  0
  3 50  1  0
  4 51  1  0
  4 52  1  0
  5 53  1  0
  5 54  1  0
  6 55  1  0
  6 56  1  0
  7 57  1  0
  7 58  1  0
  8 59  1  0
  8 60  1  0
  9 61  1  0
  9 62  1  0
 10 63  1  0
 10 64  1  0
 11 65  1  1
 12 66  1  6
 13 67  1  0
 13 68  1  0
 14 69  1  0
 14 70  1  0
 15 71  1  1
 17 72  1  1
 18 73  1  0
 18 74  1  0
 19 75  1  0
 19 76  1  0
 20 77  1  6
 22 78  1  1
 23 79  1  0
 23 80  1  0
 24 81  1  0
 24 82  1  0
 25 83  1  0
 25 84  1  0
 26 85  1  0
 26 86  1  0
 27 87  1  0
 27 88  1  0
 28 89  1  0
 28 90  1  0
 29 91  1  0
 29 92  1  0
 30 93  1  0
 30 94  1  0
 31 95  1  0
 31 96  1  0
 32 97  1  0
 32 98  1  0
 33 99  1  0
 33100  1  0
 34101  1  0
 34102  1  0
 36103  1  0
 37104  1  1
 41105  1  0
 41106  1  0
 41107  1  0
 42108  1  0
 43109  1  0
M  END
$$$$
