
     RDKit          3D

105107  0  0  0  0  0  0  0  0999 V2000
  -13.2202    3.4467   -0.6370 C   0  0  0  0  0  0  0  0  0  0  0  0
  -13.8021    2.0455   -0.4578 C   0  0  0  0  0  0  0  0  0  0  0  0
  -12.8332    1.0727    0.2332 C   0  0  0  0  0  0  0  0  0  0  0  0
  -11.5912    0.7184   -0.6140 C   0  0  0  0  0  0  0  0  0  0  0  0
  -10.3488    1.5329   -0.2044 C   0  0  0  0  0  0  0  0  0  0  0  0
   -9.1055    1.2039   -1.0543 C   0  0  0  0  0  0  0  0  0  0  0  0
   -8.6162   -0.2557   -0.9618 C   0  0  0  0  0  0  0  0  0  0  0  0
   -8.3975   -0.7893    0.4654 C   0  0  0  0  0  0  0  0  0  0  0  0
   -7.3226   -0.0093    1.2447 C   0  0  0  0  0  0  0  0  0  0  0  0
   -7.1111   -0.5812    2.6575 C   0  0  0  0  0  0  0  0  0  0  0  0
   -6.5383   -1.9739    2.6258 C   0  0  0  0  0  0  0  0  0  0  0  0
   -5.2774   -2.1983    2.2374 C   0  0  0  0  0  0  0  0  0  0  0  0
   -4.7064   -3.5899    2.1472 C   0  0  0  0  0  0  0  0  0  0  0  0
   -3.9643   -3.7881    0.8197 C   0  0  0  0  0  0  0  0  0  0  0  0
   -4.9456   -3.8676   -0.3652 C   0  0  0  0  0  0  0  0  0  0  0  0
   -5.3755   -2.5851   -0.7565 O   0  0  0  0  0  0  0  0  0  0  0  0
   -4.5977   -3.2931   -1.7000 C   0  0  0  0  0  0  0  0  0  0  0  0
   -3.2102   -2.6636   -1.9404 C   0  0  0  0  0  0  0  0  0  0  0  0
   -3.1710   -1.1528   -1.6706 C   0  0  0  0  0  0  0  0  0  0  0  0
   -1.7675   -0.6045   -1.9365 C   0  0  0  0  0  0  0  0  0  0  0  0
   -1.5975    0.6662   -1.3476 O   0  0  0  0  0  0  0  0  0  0  0  0
   -0.8954   -0.4023   -0.7511 C   0  0  0  0  0  0  0  0  0  0  0  0
    0.6100   -0.3230   -1.0213 C   0  0  0  0  0  0  0  0  0  0  0  0
    1.2930    0.5643    0.0261 C   0  0  0  0  0  0  0  0  0  0  0  0
    2.8082    0.6966   -0.2030 C   0  0  0  0  0  0  0  0  0  0  0  0
    3.5779   -0.5727    0.2013 C   0  0  0  0  0  0  0  0  0  0  0  0
    5.0936   -0.4378   -0.0214 C   0  0  0  0  0  0  0  0  0  0  0  0
    5.7683    0.4644    1.0294 C   0  0  0  0  0  0  0  0  0  0  0  0
    7.3033    0.3631    0.9985 C   0  0  0  0  0  0  0  0  0  0  0  0
    7.9152    1.0603   -0.2292 C   0  0  0  0  0  0  0  0  0  0  0  0
    9.4415    0.8916   -0.3039 C   0  0  0  0  0  0  0  0  0  0  0  0
   10.1824    1.6720    0.7952 C   0  0  0  0  0  0  0  0  0  0  0  0
   11.6967    1.7431    0.5444 C   0  0  0  0  0  0  0  0  0  0  0  0
   12.3892    0.3862    0.7318 C   0  0  0  0  0  0  0  0  0  0  0  0
   13.8715    0.5272    0.5582 C   0  0  0  0  0  0  0  0  0  0  0  0
   14.5287    0.4745   -0.5937 C   0  0  0  0  0  0  0  0  0  0  0  0
   16.0001    0.7276   -0.3743 C   0  0  0  0  0  0  0  0  0  0  0  0
   16.0942    0.9674    1.0276 O   0  0  0  0  0  0  0  0  0  0  0  0
   14.8348    0.8518    1.5839 C   0  0  0  0  0  0  0  0  0  0  0  0
   14.5856    1.0109    2.8084 O   0  0  0  0  0  0  0  0  0  0  0  0
   16.4766    1.9509   -1.1522 C   0  0  0  0  0  0  0  0  0  0  0  0
  -12.4710    3.4507   -1.4602 H   0  0  0  0  0  0  0  0  0  0  0  0
  -14.0325    4.1570   -0.9124 H   0  0  0  0  0  0  0  0  0  0  0  0
  -12.7471    3.7999    0.3063 H   0  0  0  0  0  0  0  0  0  0  0  0
  -14.1108    1.6433   -1.4459 H   0  0  0  0  0  0  0  0  0  0  0  0
  -14.7186    2.1274    0.1689 H   0  0  0  0  0  0  0  0  0  0  0  0
  -12.5372    1.4699    1.2289 H   0  0  0  0  0  0  0  0  0  0  0  0
  -13.3984    0.1321    0.4231 H   0  0  0  0  0  0  0  0  0  0  0  0
  -11.3736   -0.3584   -0.4591 H   0  0  0  0  0  0  0  0  0  0  0  0
  -11.7972    0.8569   -1.6983 H   0  0  0  0  0  0  0  0  0  0  0  0
  -10.1260    1.3783    0.8747 H   0  0  0  0  0  0  0  0  0  0  0  0
  -10.5605    2.6132   -0.3327 H   0  0  0  0  0  0  0  0  0  0  0  0
   -8.2766    1.8859   -0.7569 H   0  0  0  0  0  0  0  0  0  0  0  0
   -9.3340    1.4309   -2.1199 H   0  0  0  0  0  0  0  0  0  0  0  0
   -7.6611   -0.3396   -1.5229 H   0  0  0  0  0  0  0  0  0  0  0  0
   -9.3429   -0.9174   -1.4791 H   0  0  0  0  0  0  0  0  0  0  0  0
   -9.3536   -0.7857    1.0307 H   0  0  0  0  0  0  0  0  0  0  0  0
   -8.0817   -1.8521    0.3763 H   0  0  0  0  0  0  0  0  0  0  0  0
   -6.3635   -0.0181    0.6786 H   0  0  0  0  0  0  0  0  0  0  0  0
   -7.6350    1.0510    1.3572 H   0  0  0  0  0  0  0  0  0  0  0  0
   -8.0827   -0.5950    3.1989 H   0  0  0  0  0  0  0  0  0  0  0  0
   -6.4248    0.0843    3.2266 H   0  0  0  0  0  0  0  0  0  0  0  0
   -7.1724   -2.8034    2.9227 H   0  0  0  0  0  0  0  0  0  0  0  0
   -4.6347   -1.3581    1.9858 H   0  0  0  0  0  0  0  0  0  0  0  0
   -5.4994   -4.3644    2.2537 H   0  0  0  0  0  0  0  0  0  0  0  0
   -3.9885   -3.7218    2.9843 H   0  0  0  0  0  0  0  0  0  0  0  0
   -3.4057   -4.7482    0.8636 H   0  0  0  0  0  0  0  0  0  0  0  0
   -3.2179   -2.9739    0.7136 H   0  0  0  0  0  0  0  0  0  0  0  0
   -5.7943   -4.5845   -0.3270 H   0  0  0  0  0  0  0  0  0  0  0  0
   -5.2147   -3.6046   -2.5692 H   0  0  0  0  0  0  0  0  0  0  0  0
   -2.9537   -2.8304   -3.0093 H   0  0  0  0  0  0  0  0  0  0  0  0
   -2.4267   -3.1876   -1.3540 H   0  0  0  0  0  0  0  0  0  0  0  0
   -3.8876   -0.6386   -2.3482 H   0  0  0  0  0  0  0  0  0  0  0  0
   -3.4817   -0.9372   -0.6249 H   0  0  0  0  0  0  0  0  0  0  0  0
   -1.3166   -0.6509   -2.9503 H   0  0  0  0  0  0  0  0  0  0  0  0
   -1.2856   -0.6645    0.2566 H   0  0  0  0  0  0  0  0  0  0  0  0
    1.0120   -1.3552   -0.9680 H   0  0  0  0  0  0  0  0  0  0  0  0
    0.8171    0.0780   -2.0378 H   0  0  0  0  0  0  0  0  0  0  0  0
    0.8441    1.5787   -0.0284 H   0  0  0  0  0  0  0  0  0  0  0  0
    1.1029    0.1674    1.0451 H   0  0  0  0  0  0  0  0  0  0  0  0
    3.0085    0.9437   -1.2689 H   0  0  0  0  0  0  0  0  0  0  0  0
    3.1686    1.5515    0.4106 H   0  0  0  0  0  0  0  0  0  0  0  0
    3.3710   -0.8214    1.2644 H   0  0  0  0  0  0  0  0  0  0  0  0
    3.2243   -1.4250   -0.4143 H   0  0  0  0  0  0  0  0  0  0  0  0
    5.5387   -1.4564    0.0353 H   0  0  0  0  0  0  0  0  0  0  0  0
    5.2789   -0.0449   -1.0442 H   0  0  0  0  0  0  0  0  0  0  0  0
    5.4273    0.1560    2.0428 H   0  0  0  0  0  0  0  0  0  0  0  0
    5.4632    1.5234    0.8785 H   0  0  0  0  0  0  0  0  0  0  0  0
    7.6897    0.8482    1.9212 H   0  0  0  0  0  0  0  0  0  0  0  0
    7.6128   -0.7055    1.0269 H   0  0  0  0  0  0  0  0  0  0  0  0
    7.6560    2.1408   -0.2257 H   0  0  0  0  0  0  0  0  0  0  0  0
    7.4884    0.6196   -1.1515 H   0  0  0  0  0  0  0  0  0  0  0  0
    9.6944   -0.1902   -0.2428 H   0  0  0  0  0  0  0  0  0  0  0  0
    9.7757    1.2596   -1.3005 H   0  0  0  0  0  0  0  0  0  0  0  0
    9.9950    1.2078    1.7868 H   0  0  0  0  0  0  0  0  0  0  0  0
    9.7892    2.7123    0.8268 H   0  0  0  0  0  0  0  0  0  0  0  0
   12.1319    2.4734    1.2640 H   0  0  0  0  0  0  0  0  0  0  0  0
   11.8895    2.1264   -0.4835 H   0  0  0  0  0  0  0  0  0  0  0  0
   12.1812   -0.0121    1.7490 H   0  0  0  0  0  0  0  0  0  0  0  0
   12.0116   -0.3482   -0.0115 H   0  0  0  0  0  0  0  0  0  0  0  0
   14.0665    0.2834   -1.5546 H   0  0  0  0  0  0  0  0  0  0  0  0
   16.5909   -0.1730   -0.6503 H   0  0  0  0  0  0  0  0  0  0  0  0
   17.5526    2.1335   -0.9376 H   0  0  0  0  0  0  0  0  0  0  0  0
   16.3554    1.7804   -2.2434 H   0  0  0  0  0  0  0  0  0  0  0  0
   15.8954    2.8513   -0.8551 H   0  0  0  0  0  0  0  0  0  0  0  0
  1  2  1  0
  2  3  1  0
  3  4  1  0
  4  5  1  0
  5  6  1  0
  6  7  1  0
  7  8  1  0
  8  9  1  0
  9 10  1  0
 10 11  1  0
 11 12  2  0
 12 13  1  0
 13 14  1  0
 14 15  1  0
 15 16  1  0
 16 17  1  0
 17 18  1  0
 18 19  1  0
 19 20  1  0
 20 21  1  0
 21 22  1  0
 22 23  1  0
 23 24  1  0
 24 25  1  0
 25 26  1  0
 26 27  1  0
 27 28  1  0
 28 29  1  0
 29 30  1  0
 30 31  1  0
 31 32  1  0
 32 33  1  0
 33 34  1  0
 34 35  1  0
 35 36  2  0
 36 37  1  0
 37 38  1  0
 38 39  1  0
 39 40  2  0
 37 41  1  0
 17 15  1  0
 22 20  1  0
 39 35  1  0
  1 42  1  0
  1 43  1  0
  1 44  1  0
  2 45  1  0
  2 46  1  0
  3 47  1  0
  3 48  1  0
  4 49  1  0
  4 50  1  0
  5 51  1  0
  5 52  1  0
  6 53  1  0
  6 54  1  0
  7 55  1  0
  7 56  1  0
  8 57  1  0
  8 58  1  0
  9 59  1  0
  9 60  1  0
 10 61  1  0
 10 62  1  0
 11 63  1  0
 12 64  1  0
 13 65  1  0
 13 66  1  0
 14 67  1  0
 14 68  1  0
 15 69  1  0
 17 70  1  0
 18 71  1  0
 18 72  1  0
 19 73  1  0
 19 74  1  0
 20 75  1  0
 22 76  1  0
 23 77  1  0
 23 78  1  0
 24 79  1  0
 24 80  1  0
 25 81  1  0
 25 82  1  0
 26 83  1  0
 26 84  1  0
 27 85  1  0
 27 86  1  0
 28 87  1  0
 28 88  1  0
 29 89  1  0
 29 90  1  0
 30 91  1  0
 30 92  1  0
 31 93  1  0
 31 94  1  0
 32 95  1  0
 32 96  1  0
 33 97  1  0
 33 98  1  0
 34 99  1  0
 34100  1  0
 36101  1  0
 37102  1  0
 41103  1  0
 41104  1  0
 41105  1  0
M  END
$$$$
