
     RDKit          3D

 92 93  0  0  0  0  0  0  0  0999 V2000
   -1.9568    3.0497    1.7390 C   0  0  0  0  0  0  0  0  0  0  0  0
   -1.3386    2.6411    0.5256 O   0  0  0  0  0  0  0  0  0  0  0  0
   -0.3320    1.6718    0.4835 C   0  0  0  0  0  0  0  0  0  0  0  0
    0.0849    1.1436    1.5508 O   0  0  0  0  0  0  0  0  0  0  0  0
    0.2300    1.2565   -0.8578 C   0  0  0  0  0  0  0  0  0  0  0  0
    1.5639    0.5060   -0.7182 C   0  0  0  0  0  0  0  0  0  0  0  0
    1.7233   -0.7899   -1.0493 C   0  0  0  0  0  0  0  0  0  0  0  0
    2.9912   -1.4880   -0.7916 C   0  0  0  0  0  0  0  0  0  0  0  0
    3.1212   -2.6974   -1.1170 O   0  0  0  0  0  0  0  0  0  0  0  0
    4.0969   -0.7828   -0.1293 C   0  0  0  0  0  0  0  0  0  0  0  0
    3.9998    0.5274    0.1563 C   0  0  0  0  0  0  0  0  0  0  0  0
    2.7284    1.2394   -0.1397 C   0  0  0  0  0  0  0  0  0  0  0  0
    2.6288    2.4706    0.1128 O   0  0  0  0  0  0  0  0  0  0  0  0
    5.1175    1.2473    0.8846 C   0  0  0  0  0  0  0  0  0  0  0  0
    6.4935    0.8265    0.4226 C   0  0  0  0  0  0  0  0  0  0  0  0
    7.0206    1.1383   -0.7883 C   0  0  0  0  0  0  0  0  0  0  0  0
    8.3873    0.6409   -1.2509 C   0  0  0  0  0  0  0  0  0  0  0  0
    9.1323   -0.3279   -0.3133 C   0  0  0  0  0  0  0  0  0  0  0  0
    9.7035    0.3756    0.8984 C   0  0  0  0  0  0  0  0  0  0  0  0
   10.2340   -0.2812    1.9519 C   0  0  0  0  0  0  0  0  0  0  0  0
   10.2547   -1.7880    2.0153 C   0  0  0  0  0  0  0  0  0  0  0  0
   10.8023    0.5200    3.0957 C   0  0  0  0  0  0  0  0  0  0  0  0
    6.2576    2.0108   -1.7561 C   0  0  0  0  0  0  0  0  0  0  0  0
   -0.8890    0.6398   -1.7642 C   0  0  0  0  0  0  0  0  0  0  0  0
   -1.7726   -0.4690   -1.1719 C   0  0  0  0  0  0  0  0  0  0  0  0
   -1.4022   -1.2290   -0.1217 C   0  0  0  0  0  0  0  0  0  0  0  0
   -2.2726   -2.3020    0.3867 C   0  0  0  0  0  0  0  0  0  0  0  0
   -1.9049   -2.9991    1.3693 O   0  0  0  0  0  0  0  0  0  0  0  0
   -3.5704   -2.5612   -0.2515 C   0  0  0  0  0  0  0  0  0  0  0  0
   -3.9734   -1.8246   -1.2964 C   0  0  0  0  0  0  0  0  0  0  0  0
   -3.0987   -0.7347   -1.8042 C   0  0  0  0  0  0  0  0  0  0  0  0
   -3.4844   -0.0292   -2.7768 O   0  0  0  0  0  0  0  0  0  0  0  0
   -5.3293   -2.0632   -1.9124 C   0  0  0  0  0  0  0  0  0  0  0  0
   -6.3297   -1.0881   -1.3413 C   0  0  0  0  0  0  0  0  0  0  0  0
   -7.2898   -1.4034   -0.4429 C   0  0  0  0  0  0  0  0  0  0  0  0
   -8.1745   -0.3058    0.1058 C   0  0  0  0  0  0  0  0  0  0  0  0
   -7.4818    0.4066    1.2737 C   0  0  0  0  0  0  0  0  0  0  0  0
   -8.4052    1.4057    1.9243 C   0  0  0  0  0  0  0  0  0  0  0  0
   -9.2921    1.1031    2.8994 C   0  0  0  0  0  0  0  0  0  0  0  0
  -10.1643    2.2051    3.4412 C   0  0  0  0  0  0  0  0  0  0  0  0
   -9.4142   -0.2910    3.4720 C   0  0  0  0  0  0  0  0  0  0  0  0
   -7.4855   -2.8139    0.0622 C   0  0  0  0  0  0  0  0  0  0  0  0
   -0.3733    0.2788   -3.1376 C   0  0  0  0  0  0  0  0  0  0  0  0
    0.1107    1.1823   -3.8734 O   0  0  0  0  0  0  0  0  0  0  0  0
   -0.4447   -1.0403   -3.5985 O   0  0  0  0  0  0  0  0  0  0  0  0
   -0.0157   -1.4224   -4.8986 C   0  0  0  0  0  0  0  0  0  0  0  0
   -2.4369    2.1766    2.2311 H   0  0  0  0  0  0  0  0  0  0  0  0
   -1.2002    3.4969    2.4179 H   0  0  0  0  0  0  0  0  0  0  0  0
   -2.7341    3.8097    1.5129 H   0  0  0  0  0  0  0  0  0  0  0  0
    0.5024    2.2136   -1.3574 H   0  0  0  0  0  0  0  0  0  0  0  0
    0.9244   -1.3705   -1.4802 H   0  0  0  0  0  0  0  0  0  0  0  0
    4.9908   -1.3426    0.1201 H   0  0  0  0  0  0  0  0  0  0  0  0
    5.0236    2.3487    0.7899 H   0  0  0  0  0  0  0  0  0  0  0  0
    5.0215    1.0146    1.9656 H   0  0  0  0  0  0  0  0  0  0  0  0
    7.0459    0.2221    1.1292 H   0  0  0  0  0  0  0  0  0  0  0  0
    8.2370    0.1116   -2.2176 H   0  0  0  0  0  0  0  0  0  0  0  0
    9.0372    1.5183   -1.4638 H   0  0  0  0  0  0  0  0  0  0  0  0
    8.4525   -1.1570   -0.0190 H   0  0  0  0  0  0  0  0  0  0  0  0
    9.9764   -0.7819   -0.8766 H   0  0  0  0  0  0  0  0  0  0  0  0
    9.6817    1.4633    0.9188 H   0  0  0  0  0  0  0  0  0  0  0  0
   10.7783   -2.1503    2.9257 H   0  0  0  0  0  0  0  0  0  0  0  0
   10.7834   -2.2003    1.1311 H   0  0  0  0  0  0  0  0  0  0  0  0
    9.2153   -2.1762    2.0394 H   0  0  0  0  0  0  0  0  0  0  0  0
   10.0487    1.2474    3.4624 H   0  0  0  0  0  0  0  0  0  0  0  0
   11.7006    1.0708    2.7494 H   0  0  0  0  0  0  0  0  0  0  0  0
   11.0947   -0.1304    3.9445 H   0  0  0  0  0  0  0  0  0  0  0  0
    5.3142    1.5132   -2.0589 H   0  0  0  0  0  0  0  0  0  0  0  0
    6.0333    2.9935   -1.2934 H   0  0  0  0  0  0  0  0  0  0  0  0
    6.8517    2.2005   -2.6755 H   0  0  0  0  0  0  0  0  0  0  0  0
   -1.5895    1.4873   -1.9445 H   0  0  0  0  0  0  0  0  0  0  0  0
   -0.4648   -1.0778    0.3876 H   0  0  0  0  0  0  0  0  0  0  0  0
   -4.1970   -3.3527    0.1406 H   0  0  0  0  0  0  0  0  0  0  0  0
   -5.6416   -3.1210   -1.7802 H   0  0  0  0  0  0  0  0  0  0  0  0
   -5.2727   -1.9039   -3.0107 H   0  0  0  0  0  0  0  0  0  0  0  0
   -6.2243   -0.0518   -1.6507 H   0  0  0  0  0  0  0  0  0  0  0  0
   -8.4161    0.4286   -0.6944 H   0  0  0  0  0  0  0  0  0  0  0  0
   -9.1427   -0.7363    0.4371 H   0  0  0  0  0  0  0  0  0  0  0  0
   -6.5972    0.9541    0.8841 H   0  0  0  0  0  0  0  0  0  0  0  0
   -7.1073   -0.3275    2.0180 H   0  0  0  0  0  0  0  0  0  0  0  0
   -8.3444    2.4322    1.5708 H   0  0  0  0  0  0  0  0  0  0  0  0
  -10.8815    1.8317    4.2012 H   0  0  0  0  0  0  0  0  0  0  0  0
   -9.5322    2.9871    3.9133 H   0  0  0  0  0  0  0  0  0  0  0  0
  -10.7488    2.6632    2.6148 H   0  0  0  0  0  0  0  0  0  0  0  0
   -8.4495   -0.5994    3.9266 H   0  0  0  0  0  0  0  0  0  0  0  0
  -10.1902   -0.3386    4.2648 H   0  0  0  0  0  0  0  0  0  0  0  0
   -9.6997   -1.0116    2.6799 H   0  0  0  0  0  0  0  0  0  0  0  0
   -7.7677   -3.4873   -0.7747 H   0  0  0  0  0  0  0  0  0  0  0  0
   -8.2909   -2.8604    0.8244 H   0  0  0  0  0  0  0  0  0  0  0  0
   -6.5542   -3.1769    0.5411 H   0  0  0  0  0  0  0  0  0  0  0  0
   -0.1950   -2.5090   -5.0364 H   0  0  0  0  0  0  0  0  0  0  0  0
   -0.5915   -0.8633   -5.6664 H   0  0  0  0  0  0  0  0  0  0  0  0
    1.0698   -1.2130   -5.0169 H   0  0  0  0  0  0  0  0  0  0  0  0
  1  2  1  0
  2  3  1  0
  3  4  2  0
  3  5  1  0
  5  6  1  0
  6  7  2  0
  7  8  1  0
  8  9  2  0
  8 10  1  0
 10 11  2  0
 11 12  1  0
 12 13  2  0
 11 14  1  0
 14 15  1  0
 15 16  2  0
 16 17  1  0
 17 18  1  0
 18 19  1  0
 19 20  2  3
 20 21  1  0
 20 22  1  0
 16 23  1  0
  5 24  1  0
 24 25  1  0
 25 26  2  0
 26 27  1  0
 27 28  2  0
 27 29  1  0
 29 30  2  0
 30 31  1  0
 31 32  2  0
 30 33  1  0
 33 34  1  0
 34 35  2  0
 35 36  1  0
 36 37  1  0
 37 38  1  0
 38 39  2  3
 39 40  1  0
 39 41  1  0
 35 42  1  0
 24 43  1  0
 43 44  2  0
 43 45  1  0
 45 46  1  0
 12  6  1  0
 31 25  1  0
  1 47  1  0
  1 48  1  0
  1 49  1  0
  5 50  1  0
  7 51  1  0
 10 52  1  0
 14 53  1  0
 14 54  1  0
 15 55  1  0
 17 56  1  0
 17 57  1  0
 18 58  1  0
 18 59  1  0
 19 60  1  0
 21 61  1  0
 21 62  1  0
 21 63  1  0
 22 64  1  0
 22 65  1  0
 22 66  1  0
 23 67  1  0
 23 68  1  0
 23 69  1  0
 24 70  1  0
 26 71  1  0
 29 72  1  0
 33 73  1  0
 33 74  1  0
 34 75  1  0
 36 76  1  0
 36 77  1  0
 37 78  1  0
 37 79  1  0
 38 80  1  0
 40 81  1  0
 40 82  1  0
 40 83  1  0
 41 84  1  0
 41 85  1  0
 41 86  1  0
 42 87  1  0
 42 88  1  0
 42 89  1  0
 46 90  1  0
 46 91  1  0
 46 92  1  0
M  END
$$$$
