
     RDKit          3D

 23 24  0  0  0  0  0  0  0  0999 V2000
    3.4607    0.0936   -0.2737 C   0  0  0  0  0  0  0  0  0  0  0  0
    1.9640    0.2724   -0.1865 C   0  0  0  0  0  0  0  0  0  0  0  0
    1.1697   -0.7852    0.0867 C   0  0  0  0  0  0  0  0  0  0  0  0
    1.7905   -2.0215    0.3077 O   0  0  0  0  0  0  0  0  0  0  0  0
   -0.3283   -0.6365    0.1503 C   0  0  0  0  0  0  0  0  0  0  0  0
   -1.1594   -1.7629    0.3269 C   0  0  0  0  0  0  0  0  0  0  0  0
   -2.5441   -1.6303    0.3767 C   0  0  0  0  0  0  0  0  0  0  0  0
   -3.1351   -0.3858    0.2030 C   0  0  0  0  0  0  0  0  0  0  0  0
   -2.3534    0.7474   -0.0248 C   0  0  0  0  0  0  0  0  0  0  0  0
   -0.9338    0.6439    0.0028 C   0  0  0  0  0  0  0  0  0  0  0  0
   -0.0455    1.8296   -0.0835 C   0  0  0  0  0  0  0  0  0  0  0  0
   -0.4823    2.9993    0.0821 O   0  0  0  0  0  0  0  0  0  0  0  0
    1.3917    1.6315   -0.2801 C   0  0  0  0  0  0  0  0  0  0  0  0
    2.1348    2.6285   -0.4905 O   0  0  0  0  0  0  0  0  0  0  0  0
   -3.0317    1.9356   -0.3076 O   0  0  0  0  0  0  0  0  0  0  0  0
    3.7135   -0.8204   -0.8522 H   0  0  0  0  0  0  0  0  0  0  0  0
    3.8845    0.0082    0.7489 H   0  0  0  0  0  0  0  0  0  0  0  0
    3.9444    0.9485   -0.7902 H   0  0  0  0  0  0  0  0  0  0  0  0
    1.3172   -2.8564    0.6179 H   0  0  0  0  0  0  0  0  0  0  0  0
   -0.7662   -2.7610    0.4210 H   0  0  0  0  0  0  0  0  0  0  0  0
   -3.1653   -2.5048    0.5238 H   0  0  0  0  0  0  0  0  0  0  0  0
   -4.2151   -0.3058    0.2051 H   0  0  0  0  0  0  0  0  0  0  0  0
   -2.6108    2.7319   -0.7638 H   0  0  0  0  0  0  0  0  0  0  0  0
  1  2  1  0
  2  3  2  0
  3  4  1  0
  3  5  1  0
  5  6  2  0
  6  7  1  0
  7  8  2  0
  8  9  1  0
  9 10  2  0
 10 11  1  0
 11 12  2  0
 11 13  1  0
 13 14  2  0
  9 15  1  0
 13  2  1  0
 10  5  1  0
  1 16  1  0
  1 17  1  0
  1 18  1  0
  4 19  1  0
  6 20  1  0
  7 21  1  0
  8 22  1  0
 15 23  1  0
M  END
$$$$
