
     RDKit          3D

 46 47  0  0  0  0  0  0  0  0999 V2000
   -2.6230    4.0458    0.6146 C   0  0  0  0  0  0  0  0  0  0  0  0
   -2.5225    2.8006   -0.1982 C   0  0  0  0  0  0  0  0  0  0  0  0
   -3.1611    2.7124   -1.2820 O   0  0  0  0  0  0  0  0  0  0  0  0
   -1.6779    1.7684    0.2263 O   0  0  0  0  0  0  0  0  0  0  0  0
   -1.5512    0.5115   -0.4464 C   0  0  2  0  0  0  0  0  0  0  0  0
   -2.7124   -0.4167   -0.0218 C   0  0  2  0  0  0  0  0  0  0  0  0
   -2.4741   -1.8613   -0.4015 C   0  0  0  0  0  0  0  0  0  0  0  0
   -1.2613   -2.3474   -0.7036 C   0  0  0  0  0  0  0  0  0  0  0  0
   -0.0541   -1.4614   -0.8969 C   0  0  1  0  0  0  0  0  0  0  0  0
   -0.1765   -0.1228   -0.1046 C   0  0  2  0  0  0  0  0  0  0  0  0
   -0.1332   -0.3453    1.2889 O   0  0  0  0  0  0  0  0  0  0  0  0
    0.9516    0.8621   -0.5230 C   0  0  0  0  0  0  0  0  0  0  0  0
    2.2515    0.3123   -0.3058 O   0  0  0  0  0  0  0  0  0  0  0  0
    2.9716    0.4534    0.8875 C   0  0  0  0  0  0  0  0  0  0  0  0
    2.5204    1.1749    1.8198 O   0  0  0  0  0  0  0  0  0  0  0  0
    4.2637   -0.2476    1.0505 C   0  0  0  0  0  0  0  0  0  0  0  0
    4.7539   -1.0786    0.0263 C   0  0  0  0  0  0  0  0  0  0  0  0
    5.9732   -1.7461    0.1796 C   0  0  0  0  0  0  0  0  0  0  0  0
    6.7140   -1.5922    1.3537 C   0  0  0  0  0  0  0  0  0  0  0  0
    6.2370   -0.7704    2.3775 C   0  0  0  0  0  0  0  0  0  0  0  0
    5.0183   -0.1007    2.2299 C   0  0  0  0  0  0  0  0  0  0  0  0
    1.1027   -2.1631   -0.5159 O   0  0  0  0  0  0  0  0  0  0  0  0
   -3.9230    0.0418   -0.6239 O   0  0  0  0  0  0  0  0  0  0  0  0
   -5.1979   -0.3151   -0.1702 C   0  0  0  0  0  0  0  0  0  0  0  0
   -5.3412   -1.0524    0.8428 O   0  0  0  0  0  0  0  0  0  0  0  0
   -6.4008    0.2242   -0.8652 C   0  0  0  0  0  0  0  0  0  0  0  0
   -3.6803    4.3817    0.6641 H   0  0  0  0  0  0  0  0  0  0  0  0
   -2.0058    4.8421    0.1493 H   0  0  0  0  0  0  0  0  0  0  0  0
   -2.2575    3.8582    1.6459 H   0  0  0  0  0  0  0  0  0  0  0  0
   -1.5981    0.6723   -1.5488 H   0  0  0  0  0  0  0  0  0  0  0  0
   -2.8098   -0.3652    1.0857 H   0  0  0  0  0  0  0  0  0  0  0  0
   -3.3017   -2.5592   -0.3209 H   0  0  0  0  0  0  0  0  0  0  0  0
   -1.1683   -3.4065   -0.9268 H   0  0  0  0  0  0  0  0  0  0  0  0
    0.0030   -1.2183   -1.9847 H   0  0  0  0  0  0  0  0  0  0  0  0
    0.6790   -0.8703    1.5038 H   0  0  0  0  0  0  0  0  0  0  0  0
    0.8537    1.8319    0.0122 H   0  0  0  0  0  0  0  0  0  0  0  0
    0.8557    1.0852   -1.6074 H   0  0  0  0  0  0  0  0  0  0  0  0
    4.1962   -1.2155   -0.8917 H   0  0  0  0  0  0  0  0  0  0  0  0
    6.3434   -2.3838   -0.6130 H   0  0  0  0  0  0  0  0  0  0  0  0
    7.6574   -2.1098    1.4700 H   0  0  0  0  0  0  0  0  0  0  0  0
    6.8122   -0.6521    3.2870 H   0  0  0  0  0  0  0  0  0  0  0  0
    4.6682    0.5306    3.0366 H   0  0  0  0  0  0  0  0  0  0  0  0
    1.3186   -2.7916   -1.2540 H   0  0  0  0  0  0  0  0  0  0  0  0
   -6.1254    0.5810   -1.8799 H   0  0  0  0  0  0  0  0  0  0  0  0
   -7.1715   -0.5695   -0.9608 H   0  0  0  0  0  0  0  0  0  0  0  0
   -6.8163    1.0723   -0.2820 H   0  0  0  0  0  0  0  0  0  0  0  0
  1  2  1  0
  2  3  2  0
  2  4  1  0
  4  5  1  0
  5  6  1  0
  6  7  1  0
  7  8  2  0
  8  9  1  0
  9 10  1  0
 10 11  1  1
 10 12  1  0
 12 13  1  0
 13 14  1  0
 14 15  2  0
 14 16  1  0
 16 17  2  0
 17 18  1  0
 18 19  2  0
 19 20  1  0
 20 21  2  0
  9 22  1  0
  6 23  1  0
 23 24  1  0
 24 25  2  0
 24 26  1  0
 10  5  1  0
 21 16  1  0
  1 27  1  0
  1 28  1  0
  1 29  1  0
  5 30  1  6
  6 31  1  1
  7 32  1  0
  8 33  1  0
  9 34  1  6
 11 35  1  0
 12 36  1  0
 12 37  1  0
 17 38  1  0
 18 39  1  0
 19 40  1  0
 20 41  1  0
 21 42  1  0
 22 43  1  0
 26 44  1  0
 26 45  1  0
 26 46  1  0
M  END
$$$$
