
     RDKit          3D

 48 51  0  0  0  0  0  0  0  0999 V2000
    4.0345   -2.0126    0.9671 O   0  0  0  0  0  0  0  0  0  0  0  0
    3.8697   -1.1053    0.1055 C   0  0  0  0  0  0  0  0  0  0  0  0
    4.4329   -1.2608   -1.2532 C   0  0  0  0  0  0  0  0  0  0  0  0
    4.2241   -0.2658   -2.2258 C   0  0  0  0  0  0  0  0  0  0  0  0
    4.7526   -0.4121   -3.5122 C   0  0  0  0  0  0  0  0  0  0  0  0
    5.4926   -1.5501   -3.8411 C   0  0  0  0  0  0  0  0  0  0  0  0
    5.7056   -2.5448   -2.8841 C   0  0  0  0  0  0  0  0  0  0  0  0
    5.1793   -2.4041   -1.5961 C   0  0  0  0  0  0  0  0  0  0  0  0
    3.1580    0.0550    0.4336 O   0  0  0  0  0  0  0  0  0  0  0  0
    2.4824    0.2414    1.6751 C   0  0  0  0  0  0  0  0  0  0  0  0
    1.1891   -0.5871    1.7204 C   0  0  1  0  0  0  0  0  0  0  0  0
    1.3697   -1.9065    2.1773 O   0  0  0  0  0  0  0  0  0  0  0  0
    0.7375   -1.0117    3.0733 C   0  0  2  0  0  0  0  0  0  0  0  0
   -0.7580   -1.3379    3.2215 C   0  0  2  0  0  0  0  0  0  0  0  0
   -1.6725   -0.2475    2.6002 C   0  0  1  0  0  0  0  0  0  0  0  0
   -1.0769    0.4282    1.3237 C   0  0  1  0  0  0  0  0  0  0  0  0
    0.0524   -0.4087    0.6886 C   0  0  1  0  0  0  0  0  0  0  0  0
    0.5203    0.1804   -0.5003 O   0  0  0  0  0  0  0  0  0  0  0  0
   -2.0882    0.6722    0.3428 O   0  0  0  0  0  0  0  0  0  0  0  0
   -3.0683    1.6646    0.4728 C   0  0  0  0  0  0  0  0  0  0  0  0
   -3.0781    2.4155    1.4872 O   0  0  0  0  0  0  0  0  0  0  0  0
   -4.0910    1.8290   -0.5829 C   0  0  0  0  0  0  0  0  0  0  0  0
   -4.0835    0.9926   -1.7142 C   0  0  0  0  0  0  0  0  0  0  0  0
   -5.0500    1.1455   -2.7133 C   0  0  0  0  0  0  0  0  0  0  0  0
   -6.0316    2.1320   -2.5944 C   0  0  0  0  0  0  0  0  0  0  0  0
   -6.0491    2.9679   -1.4756 C   0  0  0  0  0  0  0  0  0  0  0  0
   -5.0852    2.8196   -0.4733 C   0  0  0  0  0  0  0  0  0  0  0  0
   -2.9221   -0.8189    2.2993 O   0  0  0  0  0  0  0  0  0  0  0  0
   -1.1445   -1.5579    4.9514 Cl  0  0  0  0  0  0  0  0  0  0  0  0
    3.6518    0.6240   -1.9950 H   0  0  0  0  0  0  0  0  0  0  0  0
    4.5874    0.3577   -4.2550 H   0  0  0  0  0  0  0  0  0  0  0  0
    5.9006   -1.6612   -4.8374 H   0  0  0  0  0  0  0  0  0  0  0  0
    6.2788   -3.4265   -3.1403 H   0  0  0  0  0  0  0  0  0  0  0  0
    5.3568   -3.1884   -0.8709 H   0  0  0  0  0  0  0  0  0  0  0  0
    2.2145    1.3137    1.7752 H   0  0  0  0  0  0  0  0  0  0  0  0
    3.1661   -0.0122    2.5156 H   0  0  0  0  0  0  0  0  0  0  0  0
    1.3756   -0.7885    3.9552 H   0  0  0  0  0  0  0  0  0  0  0  0
   -0.9699   -2.3104    2.7223 H   0  0  0  0  0  0  0  0  0  0  0  0
   -1.8152    0.5662    3.3509 H   0  0  0  0  0  0  0  0  0  0  0  0
   -0.6312    1.4060    1.6215 H   0  0  0  0  0  0  0  0  0  0  0  0
   -0.3596   -1.4067    0.4196 H   0  0  0  0  0  0  0  0  0  0  0  0
    0.7424    1.1284   -0.3063 H   0  0  0  0  0  0  0  0  0  0  0  0
   -3.3326    0.2209   -1.8285 H   0  0  0  0  0  0  0  0  0  0  0  0
   -5.0374    0.4983   -3.5808 H   0  0  0  0  0  0  0  0  0  0  0  0
   -6.7785    2.2485   -3.3689 H   0  0  0  0  0  0  0  0  0  0  0  0
   -6.8105    3.7319   -1.3845 H   0  0  0  0  0  0  0  0  0  0  0  0
   -5.1185    3.4792    0.3849 H   0  0  0  0  0  0  0  0  0  0  0  0
   -3.4221   -0.8931    3.1538 H   0  0  0  0  0  0  0  0  0  0  0  0
  1  2  2  0
  2  3  1  0
  3  4  2  0
  4  5  1  0
  5  6  2  0
  6  7  1  0
  7  8  2  0
  2  9  1  0
  9 10  1  0
 11 10  1  1
 11 12  1  0
 12 13  1  0
 13 14  1  0
 14 15  1  0
 15 16  1  0
 16 17  1  0
 17 18  1  0
 16 19  1  0
 19 20  1  0
 20 21  2  0
 20 22  1  0
 22 23  2  0
 23 24  1  0
 24 25  2  0
 25 26  1  0
 26 27  2  0
 15 28  1  0
 14 29  1  0
  8  3  1  0
 13 11  1  0
 27 22  1  0
 17 11  1  0
  4 30  1  0
  5 31  1  0
  6 32  1  0
  7 33  1  0
  8 34  1  0
 10 35  1  0
 10 36  1  0
 13 37  1  1
 14 38  1  6
 15 39  1  1
 16 40  1  1
 17 41  1  6
 18 42  1  0
 23 43  1  0
 24 44  1  0
 25 45  1  0
 26 46  1  0
 27 47  1  0
 28 48  1  0
M  END
$$$$
