
     RDKit          3D

 75 78  0  0  0  0  0  0  0  0999 V2000
    8.6924   -0.6914   -0.0788 O   0  0  0  0  0  0  0  0  0  0  0  0
    7.3032   -0.7893    0.1101 C   0  0  1  0  0  0  0  0  0  0  0  0
    6.8358    0.1662    1.2175 C   0  0  0  0  0  0  0  0  0  0  0  0
    5.3237    0.0321    1.4531 C   0  0  0  0  0  0  0  0  0  0  0  0
    4.4623    0.2769    0.1737 C   0  0  1  0  0  0  0  0  0  0  0  0
    5.0568   -0.5452   -0.9846 C   0  0  0  0  0  0  0  0  0  0  0  0
    4.2841   -1.1646   -1.9044 C   0  0  0  0  0  0  0  0  0  0  0  0
    2.8026   -1.3592   -1.7531 C   0  0  0  0  0  0  0  0  0  0  0  0
    2.1524   -0.2999   -0.8502 C   0  0  2  0  0  0  0  0  0  0  0  0
    2.9775   -0.1716    0.4657 C   0  0  2  0  0  0  0  0  0  0  0  0
    2.2528    0.6922    1.5487 C   0  0  0  0  0  0  0  0  0  0  0  0
    0.7713    0.3037    1.7626 C   0  0  0  0  0  0  0  0  0  0  0  0
   -0.0101    0.2944    0.4248 C   0  0  1  0  0  0  0  0  0  0  0  0
    0.7069   -0.7099   -0.4934 C   0  0  1  0  0  0  0  0  0  0  0  0
   -0.2679   -0.9730   -1.6285 C   0  0  0  0  0  0  0  0  0  0  0  0
   -1.6472   -0.8807   -0.9624 C   0  0  0  0  0  0  0  0  0  0  0  0
   -1.4276   -0.3504    0.4815 C   0  0  2  0  0  0  0  0  0  0  0  0
   -2.6254    0.5281    0.9654 C   0  0  1  0  0  0  0  0  0  0  0  0
   -3.9025   -0.2829    0.9009 C   0  0  0  0  0  0  0  0  0  0  0  0
   -4.8150   -0.0920   -0.0650 C   0  0  0  0  0  0  0  0  0  0  0  0
   -6.0727   -0.9293   -0.1518 C   0  0  1  0  0  0  0  0  0  0  0  0
   -7.3551   -0.1044    0.1600 C   0  0  0  0  0  0  0  0  0  0  0  0
   -7.5720    1.0868   -0.7905 C   0  0  0  0  0  0  0  0  0  0  0  0
   -7.3592    0.3795    1.6185 C   0  0  0  0  0  0  0  0  0  0  0  0
   -6.1388   -1.6164   -1.5219 C   0  0  0  0  0  0  0  0  0  0  0  0
   -2.4539    1.0282    2.4065 C   0  0  0  0  0  0  0  0  0  0  0  0
   -0.0867    1.7332   -0.1789 C   0  0  0  0  0  0  0  0  0  0  0  0
    6.5586   -0.5202   -1.2041 C   0  0  0  0  0  0  0  0  0  0  0  0
    4.5339    1.7804   -0.2137 C   0  0  0  0  0  0  0  0  0  0  0  0
    8.8967    0.2453   -0.3377 H   0  0  0  0  0  0  0  0  0  0  0  0
    7.0804   -1.8315    0.4297 H   0  0  0  0  0  0  0  0  0  0  0  0
    7.3687   -0.0839    2.1606 H   0  0  0  0  0  0  0  0  0  0  0  0
    7.0923    1.2160    0.9598 H   0  0  0  0  0  0  0  0  0  0  0  0
    5.1314   -0.9909    1.8472 H   0  0  0  0  0  0  0  0  0  0  0  0
    5.0403    0.7473    2.2549 H   0  0  0  0  0  0  0  0  0  0  0  0
    4.7529   -1.6780   -2.7392 H   0  0  0  0  0  0  0  0  0  0  0  0
    2.6358   -2.3766   -1.3369 H   0  0  0  0  0  0  0  0  0  0  0  0
    2.3374   -1.3228   -2.7616 H   0  0  0  0  0  0  0  0  0  0  0  0
    2.1412    0.6522   -1.4140 H   0  0  0  0  0  0  0  0  0  0  0  0
    3.0278   -1.1989    0.8973 H   0  0  0  0  0  0  0  0  0  0  0  0
    2.7708    0.5758    2.5230 H   0  0  0  0  0  0  0  0  0  0  0  0
    2.2957    1.7684    1.2953 H   0  0  0  0  0  0  0  0  0  0  0  0
    0.3279    1.0219    2.4784 H   0  0  0  0  0  0  0  0  0  0  0  0
    0.7299   -0.7003    2.2395 H   0  0  0  0  0  0  0  0  0  0  0  0
    0.7867   -1.6828    0.0538 H   0  0  0  0  0  0  0  0  0  0  0  0
   -0.1057   -1.9786   -2.0742 H   0  0  0  0  0  0  0  0  0  0  0  0
   -0.1616   -0.2007   -2.4219 H   0  0  0  0  0  0  0  0  0  0  0  0
   -2.1348   -1.8800   -0.9343 H   0  0  0  0  0  0  0  0  0  0  0  0
   -2.2881   -0.1929   -1.5562 H   0  0  0  0  0  0  0  0  0  0  0  0
   -1.3741   -1.2388    1.1541 H   0  0  0  0  0  0  0  0  0  0  0  0
   -2.7285    1.4201    0.3093 H   0  0  0  0  0  0  0  0  0  0  0  0
   -4.0472   -1.0756    1.6303 H   0  0  0  0  0  0  0  0  0  0  0  0
   -4.6524    0.6806   -0.8116 H   0  0  0  0  0  0  0  0  0  0  0  0
   -6.0223   -1.7520    0.5979 H   0  0  0  0  0  0  0  0  0  0  0  0
   -8.2298   -0.7826    0.0449 H   0  0  0  0  0  0  0  0  0  0  0  0
   -6.7457    1.8234   -0.7084 H   0  0  0  0  0  0  0  0  0  0  0  0
   -8.5227    1.6030   -0.5374 H   0  0  0  0  0  0  0  0  0  0  0  0
   -7.6530    0.7449   -1.8421 H   0  0  0  0  0  0  0  0  0  0  0  0
   -8.3278    0.8695    1.8558 H   0  0  0  0  0  0  0  0  0  0  0  0
   -6.5396    1.1088    1.7962 H   0  0  0  0  0  0  0  0  0  0  0  0
   -7.2310   -0.4802    2.3107 H   0  0  0  0  0  0  0  0  0  0  0  0
   -5.2826   -2.3164   -1.6317 H   0  0  0  0  0  0  0  0  0  0  0  0
   -7.0775   -2.2026   -1.6159 H   0  0  0  0  0  0  0  0  0  0  0  0
   -6.0870   -0.8774   -2.3488 H   0  0  0  0  0  0  0  0  0  0  0  0
   -3.4166    1.4222    2.7973 H   0  0  0  0  0  0  0  0  0  0  0  0
   -1.7350    1.8685    2.4492 H   0  0  0  0  0  0  0  0  0  0  0  0
   -2.1133    0.2079    3.0736 H   0  0  0  0  0  0  0  0  0  0  0  0
    0.9052    2.1574   -0.4200 H   0  0  0  0  0  0  0  0  0  0  0  0
   -0.5531    2.4338    0.5411 H   0  0  0  0  0  0  0  0  0  0  0  0
   -0.6873    1.7549   -1.1116 H   0  0  0  0  0  0  0  0  0  0  0  0
    6.8525    0.4669   -1.6197 H   0  0  0  0  0  0  0  0  0  0  0  0
    6.8721   -1.2923   -1.9413 H   0  0  0  0  0  0  0  0  0  0  0  0
    3.8341    2.0260   -1.0363 H   0  0  0  0  0  0  0  0  0  0  0  0
    5.5469    2.0642   -0.5622 H   0  0  0  0  0  0  0  0  0  0  0  0
    4.3095    2.4358    0.6524 H   0  0  0  0  0  0  0  0  0  0  0  0
  1  2  1  0
  2  3  1  0
  3  4  1  0
  4  5  1  0
  5  6  1  0
  6  7  2  0
  7  8  1  0
  8  9  1  0
  9 10  1  0
 10 11  1  0
 11 12  1  0
 12 13  1  0
 13 14  1  0
 14 15  1  0
 15 16  1  0
 16 17  1  0
 17 18  1  0
 18 19  1  0
 19 20  2  0
 20 21  1  0
 21 22  1  0
 22 23  1  0
 22 24  1  0
 21 25  1  0
 18 26  1  0
 13 27  1  6
  6 28  1  0
  5 29  1  6
 28  2  1  0
 10  5  1  0
 17 13  1  0
 14  9  1  0
  1 30  1  0
  2 31  1  1
  3 32  1  0
  3 33  1  0
  4 34  1  0
  4 35  1  0
  7 36  1  0
  8 37  1  0
  8 38  1  0
  9 39  1  6
 10 40  1  1
 11 41  1  0
 11 42  1  0
 12 43  1  0
 12 44  1  0
 14 45  1  1
 15 46  1  0
 15 47  1  0
 16 48  1  0
 16 49  1  0
 17 50  1  1
 18 51  1  6
 19 52  1  0
 20 53  1  0
 21 54  1  1
 22 55  1  0
 23 56  1  0
 23 57  1  0
 23 58  1  0
 24 59  1  0
 24 60  1  0
 24 61  1  0
 25 62  1  0
 25 63  1  0
 25 64  1  0
 26 65  1  0
 26 66  1  0
 26 67  1  0
 27 68  1  0
 27 69  1  0
 27 70  1  0
 28 71  1  0
 28 72  1  0
 29 73  1  0
 29 74  1  0
 29 75  1  0
M  END
$$$$
