
     RDKit          3D

 39 41  0  0  0  0  0  0  0  0999 V2000
   -2.0535   -1.6221   -1.1836 C   0  0  0  0  0  0  0  0  0  0  0  0
   -1.6938   -1.5818    0.3169 C   0  0  1  0  0  0  0  0  0  0  0  0
   -0.5748   -2.6128    0.6507 C   0  0  0  0  0  0  0  0  0  0  0  0
    0.8367   -2.0330    0.8646 C   0  0  0  0  0  0  0  0  0  0  0  0
    1.3704   -1.2900   -0.3739 C   0  0  1  0  0  0  0  0  0  0  0  0
    0.7423    0.0492   -0.7965 C   0  0  1  0  0  0  0  0  0  0  0  0
   -0.4038    0.6242    0.0145 C   0  0  0  0  0  0  0  0  0  0  0  0
   -0.7799    1.8994   -0.0792 C   0  0  0  0  0  0  0  0  0  0  0  0
   -2.0621    2.1662    0.6328 C   0  0  0  0  0  0  0  0  0  0  0  0
   -2.5947    0.7728    0.9686 C   0  0  0  0  0  0  0  0  0  0  0  0
   -1.3758   -0.1571    0.8517 C   0  0  1  0  0  0  0  0  0  0  0  0
   -0.0298    2.9550   -0.8403 C   0  0  0  0  0  0  0  0  0  0  0  0
    2.1463    0.0289   -0.1763 C   0  0  0  0  0  0  0  0  0  0  0  0
    3.2947    0.2521   -1.1660 C   0  0  0  0  0  0  0  0  0  0  0  0
    2.3493    0.6101    1.2368 C   0  0  0  0  0  0  0  0  0  0  0  0
   -2.7869   -0.8356   -1.4505 H   0  0  0  0  0  0  0  0  0  0  0  0
   -2.5104   -2.6044   -1.4294 H   0  0  0  0  0  0  0  0  0  0  0  0
   -1.1576   -1.5007   -1.8236 H   0  0  0  0  0  0  0  0  0  0  0  0
   -2.6066   -1.9236    0.8556 H   0  0  0  0  0  0  0  0  0  0  0  0
   -0.5250   -3.4035   -0.1305 H   0  0  0  0  0  0  0  0  0  0  0  0
   -0.8553   -3.1352    1.5919 H   0  0  0  0  0  0  0  0  0  0  0  0
    0.8676   -1.4417    1.7961 H   0  0  0  0  0  0  0  0  0  0  0  0
    1.5257   -2.8844    1.0502 H   0  0  0  0  0  0  0  0  0  0  0  0
    1.6813   -1.9168   -1.2377 H   0  0  0  0  0  0  0  0  0  0  0  0
    0.7032    0.1963   -1.8976 H   0  0  0  0  0  0  0  0  0  0  0  0
   -1.8605    2.7459    1.5593 H   0  0  0  0  0  0  0  0  0  0  0  0
   -2.7724    2.7176   -0.0202 H   0  0  0  0  0  0  0  0  0  0  0  0
   -3.3945    0.4999    0.2489 H   0  0  0  0  0  0  0  0  0  0  0  0
   -3.0245    0.7479    1.9940 H   0  0  0  0  0  0  0  0  0  0  0  0
   -0.9663   -0.2357    1.8818 H   0  0  0  0  0  0  0  0  0  0  0  0
    0.9998    3.0498   -0.4358 H   0  0  0  0  0  0  0  0  0  0  0  0
    0.0200    2.6828   -1.9153 H   0  0  0  0  0  0  0  0  0  0  0  0
   -0.5411    3.9358   -0.7453 H   0  0  0  0  0  0  0  0  0  0  0  0
    3.4527    1.3415   -1.3099 H   0  0  0  0  0  0  0  0  0  0  0  0
    3.0904   -0.2046   -2.1585 H   0  0  0  0  0  0  0  0  0  0  0  0
    4.2254   -0.1952   -0.7587 H   0  0  0  0  0  0  0  0  0  0  0  0
    2.7871    1.6269    1.1562 H   0  0  0  0  0  0  0  0  0  0  0  0
    1.4161    0.7072    1.8246 H   0  0  0  0  0  0  0  0  0  0  0  0
    3.0602   -0.0317    1.7977 H   0  0  0  0  0  0  0  0  0  0  0  0
  1  2  1  0
  2  3  1  0
  3  4  1  0
  4  5  1  0
  5  6  1  0
  6  7  1  0
  7  8  2  0
  8  9  1  0
  9 10  1  0
 10 11  1  0
  8 12  1  0
  6 13  1  0
 13 14  1  0
 13 15  1  0
 11  2  1  0
 13  5  1  0
 11  7  1  0
  1 16  1  0
  1 17  1  0
  1 18  1  0
  2 19  1  1
  3 20  1  0
  3 21  1  0
  4 22  1  0
  4 23  1  0
  5 24  1  6
  6 25  1  6
  9 26  1  0
  9 27  1  0
 10 28  1  0
 10 29  1  0
 11 30  1  1
 12 31  1  0
 12 32  1  0
 12 33  1  0
 14 34  1  0
 14 35  1  0
 14 36  1  0
 15 37  1  0
 15 38  1  0
 15 39  1  0
M  END
$$$$
