
     RDKit          3D

 42 43  0  0  0  0  0  0  0  0999 V2000
    4.3533   -0.5645    0.6418 C   0  0  0  0  0  0  0  0  0  0  0  0
    3.2725   -0.0493   -0.2740 C   0  0  0  0  0  0  0  0  0  0  0  0
    3.6092    0.8275   -1.2357 C   0  0  0  0  0  0  0  0  0  0  0  0
    1.8330   -0.5231   -0.1076 C   0  0  2  0  0  0  0  0  0  0  0  0
    1.3440   -1.2715   -1.3646 C   0  0  0  0  0  0  0  0  0  0  0  0
   -0.0924   -1.8271   -1.2168 C   0  0  0  0  0  0  0  0  0  0  0  0
   -1.0151   -1.0015   -0.2504 C   0  0  1  0  0  0  0  0  0  0  0  0
   -0.5546    0.4960   -0.2615 C   0  0  2  0  0  0  0  0  0  0  0  0
    0.8892    0.6441    0.3007 C   0  0  0  0  0  0  0  0  0  0  0  0
   -1.6346    1.5442    0.2666 C   0  0  1  0  0  0  0  0  0  0  0  0
   -1.0780    2.5426    1.3125 C   0  0  0  0  0  0  0  0  0  0  0  0
   -2.1239    2.2895   -0.8273 O   0  0  0  0  0  0  0  0  0  0  0  0
   -2.8618    0.8506    0.9080 C   0  0  0  0  0  0  0  0  0  0  0  0
   -3.4837   -0.2501    0.0336 C   0  0  0  0  0  0  0  0  0  0  0  0
   -2.4672   -1.0580   -0.7947 C   0  0  0  0  0  0  0  0  0  0  0  0
   -0.9539   -1.6362    1.1793 C   0  0  0  0  0  0  0  0  0  0  0  0
    3.9535   -1.2754    1.3941 H   0  0  0  0  0  0  0  0  0  0  0  0
    5.1302   -1.0893    0.0465 H   0  0  0  0  0  0  0  0  0  0  0  0
    4.8222    0.2846    1.1827 H   0  0  0  0  0  0  0  0  0  0  0  0
    4.6371    1.1588   -1.3505 H   0  0  0  0  0  0  0  0  0  0  0  0
    2.8660    1.2308   -1.9160 H   0  0  0  0  0  0  0  0  0  0  0  0
    1.8163   -1.2636    0.7187 H   0  0  0  0  0  0  0  0  0  0  0  0
    2.0355   -2.1131   -1.5900 H   0  0  0  0  0  0  0  0  0  0  0  0
    1.3708   -0.5852   -2.2389 H   0  0  0  0  0  0  0  0  0  0  0  0
   -0.5267   -1.8576   -2.2409 H   0  0  0  0  0  0  0  0  0  0  0  0
   -0.0451   -2.8915   -0.8971 H   0  0  0  0  0  0  0  0  0  0  0  0
   -0.4356    0.7408   -1.3430 H   0  0  0  0  0  0  0  0  0  0  0  0
    0.8752    0.6874    1.4094 H   0  0  0  0  0  0  0  0  0  0  0  0
    1.2966    1.6143   -0.0563 H   0  0  0  0  0  0  0  0  0  0  0  0
   -1.8585    3.2863    1.5829 H   0  0  0  0  0  0  0  0  0  0  0  0
   -0.7722    2.0215    2.2442 H   0  0  0  0  0  0  0  0  0  0  0  0
   -0.2141    3.1095    0.9074 H   0  0  0  0  0  0  0  0  0  0  0  0
   -1.3733    2.8274   -1.1944 H   0  0  0  0  0  0  0  0  0  0  0  0
   -3.6489    1.6105    1.1132 H   0  0  0  0  0  0  0  0  0  0  0  0
   -2.6032    0.4297    1.9005 H   0  0  0  0  0  0  0  0  0  0  0  0
   -4.0518   -0.9422    0.6930 H   0  0  0  0  0  0  0  0  0  0  0  0
   -4.2226    0.2099   -0.6590 H   0  0  0  0  0  0  0  0  0  0  0  0
   -2.8087   -2.1150   -0.8626 H   0  0  0  0  0  0  0  0  0  0  0  0
   -2.4803   -0.6551   -1.8327 H   0  0  0  0  0  0  0  0  0  0  0  0
   -0.8468   -0.8740    1.9754 H   0  0  0  0  0  0  0  0  0  0  0  0
   -0.0916   -2.3224    1.3041 H   0  0  0  0  0  0  0  0  0  0  0  0
   -1.8599   -2.2399    1.3996 H   0  0  0  0  0  0  0  0  0  0  0  0
  1  2  1  0
  2  3  2  3
  2  4  1  0
  4  5  1  0
  5  6  1  0
  6  7  1  0
  7  8  1  0
  8  9  1  0
  8 10  1  0
 10 11  1  0
 10 12  1  6
 10 13  1  0
 13 14  1  0
 14 15  1  0
  7 16  1  1
  9  4  1  0
 15  7  1  0
  1 17  1  0
  1 18  1  0
  1 19  1  0
  3 20  1  0
  3 21  1  0
  4 22  1  1
  5 23  1  0
  5 24  1  0
  6 25  1  0
  6 26  1  0
  8 27  1  6
  9 28  1  0
  9 29  1  0
 11 30  1  0
 11 31  1  0
 11 32  1  0
 12 33  1  0
 13 34  1  0
 13 35  1  0
 14 36  1  0
 14 37  1  0
 15 38  1  0
 15 39  1  0
 16 40  1  0
 16 41  1  0
 16 42  1  0
M  END
$$$$
