
     RDKit          3D

 45 48  0  0  0  0  0  0  0  0999 V2000
   -0.2070    2.8273    0.9718 O   0  0  0  0  0  0  0  0  0  0  0  0
   -0.7991    1.7342    0.7744 C   0  0  0  0  0  0  0  0  0  0  0  0
   -2.2320    1.7803    0.3166 C   0  0  0  0  0  0  0  0  0  0  0  0
   -2.9499    0.4543    0.6238 C   0  0  2  0  0  0  0  0  0  0  0  0
   -2.1526   -0.6313    0.1498 O   0  0  0  0  0  0  0  0  0  0  0  0
   -0.7810   -0.7081    0.4112 C   0  0  0  0  0  0  0  0  0  0  0  0
   -0.0719    0.4327    0.8313 C   0  0  0  0  0  0  0  0  0  0  0  0
    1.2964    0.2978    1.1927 C   0  0  0  0  0  0  0  0  0  0  0  0
    2.0199    1.3437    1.7735 O   0  0  0  0  0  0  0  0  0  0  0  0
    1.9591   -0.9358    0.9933 C   0  0  0  0  0  0  0  0  0  0  0  0
    1.2344   -2.0478    0.5184 C   0  0  0  0  0  0  0  0  0  0  0  0
   -0.1293   -1.9270    0.2435 C   0  0  0  0  0  0  0  0  0  0  0  0
    1.8646   -3.2790    0.3351 O   0  0  0  0  0  0  0  0  0  0  0  0
    3.4382   -1.0594    1.3033 C   0  0  0  0  0  0  0  0  0  0  0  0
    4.2736   -0.3289    0.2775 C   0  0  0  0  0  0  0  0  0  0  0  0
    4.8783    0.8966    0.6108 C   0  0  0  0  0  0  0  0  0  0  0  0
    5.6381    1.5921   -0.3332 C   0  0  0  0  0  0  0  0  0  0  0  0
    5.8044    1.0729   -1.6179 C   0  0  0  0  0  0  0  0  0  0  0  0
    5.2136   -0.1447   -1.9615 C   0  0  0  0  0  0  0  0  0  0  0  0
    4.4493   -0.8514   -1.0210 C   0  0  0  0  0  0  0  0  0  0  0  0
    3.8691   -2.0689   -1.3734 O   0  0  0  0  0  0  0  0  0  0  0  0
   -4.3527    0.3342    0.0499 C   0  0  0  0  0  0  0  0  0  0  0  0
   -5.0184   -0.9011    0.1665 C   0  0  0  0  0  0  0  0  0  0  0  0
   -6.3192   -1.0608   -0.3191 C   0  0  0  0  0  0  0  0  0  0  0  0
   -6.9800    0.0132   -0.9168 C   0  0  0  0  0  0  0  0  0  0  0  0
   -6.3432    1.2505   -1.0243 C   0  0  0  0  0  0  0  0  0  0  0  0
   -5.0417    1.4172   -0.5402 C   0  0  0  0  0  0  0  0  0  0  0  0
   -2.7526    2.6165    0.8326 H   0  0  0  0  0  0  0  0  0  0  0  0
   -2.2350    1.9666   -0.7793 H   0  0  0  0  0  0  0  0  0  0  0  0
   -3.0359    0.3647    1.7300 H   0  0  0  0  0  0  0  0  0  0  0  0
    1.5971    2.1404    2.2267 H   0  0  0  0  0  0  0  0  0  0  0  0
   -0.6903   -2.7875   -0.0994 H   0  0  0  0  0  0  0  0  0  0  0  0
    1.3610   -4.0908   -0.0030 H   0  0  0  0  0  0  0  0  0  0  0  0
    3.6297   -0.6587    2.3227 H   0  0  0  0  0  0  0  0  0  0  0  0
    3.7633   -2.1205    1.3434 H   0  0  0  0  0  0  0  0  0  0  0  0
    4.7627    1.3160    1.6024 H   0  0  0  0  0  0  0  0  0  0  0  0
    6.0983    2.5351   -0.0679 H   0  0  0  0  0  0  0  0  0  0  0  0
    6.3932    1.6136   -2.3476 H   0  0  0  0  0  0  0  0  0  0  0  0
    5.3508   -0.5402   -2.9599 H   0  0  0  0  0  0  0  0  0  0  0  0
    3.9803   -2.4627   -2.3003 H   0  0  0  0  0  0  0  0  0  0  0  0
   -4.5280   -1.7448    0.6368 H   0  0  0  0  0  0  0  0  0  0  0  0
   -6.8166   -2.0178   -0.2281 H   0  0  0  0  0  0  0  0  0  0  0  0
   -7.9878   -0.1116   -1.2913 H   0  0  0  0  0  0  0  0  0  0  0  0
   -6.8606    2.0848   -1.4803 H   0  0  0  0  0  0  0  0  0  0  0  0
   -4.5905    2.3945   -0.6327 H   0  0  0  0  0  0  0  0  0  0  0  0
  1  2  2  0
  2  3  1  0
  3  4  1  0
  4  5  1  0
  5  6  1  0
  6  7  2  0
  7  8  1  0
  8  9  1  0
  8 10  2  0
 10 11  1  0
 11 12  2  0
 11 13  1  0
 10 14  1  0
 14 15  1  0
 15 16  2  0
 16 17  1  0
 17 18  2  0
 18 19  1  0
 19 20  2  0
 20 21  1  0
  4 22  1  0
 22 23  2  0
 23 24  1  0
 24 25  2  0
 25 26  1  0
 26 27  2  0
  7  2  1  0
 20 15  1  0
 27 22  1  0
 12  6  1  0
  3 28  1  0
  3 29  1  0
  4 30  1  1
  9 31  1  0
 12 32  1  0
 13 33  1  0
 14 34  1  0
 14 35  1  0
 16 36  1  0
 17 37  1  0
 18 38  1  0
 19 39  1  0
 21 40  1  0
 23 41  1  0
 24 42  1  0
 25 43  1  0
 26 44  1  0
 27 45  1  0
M  END
$$$$
