
     RDKit          3D

 73 78  0  0  0  0  0  0  0  0999 V2000
    0.4777   -1.2525    2.1937 O   0  0  0  0  0  0  0  0  0  0  0  0
    1.5189   -0.4693    1.6983 C   0  0  0  0  0  0  0  0  0  0  0  0
    2.6220   -0.1871    2.5159 C   0  0  0  0  0  0  0  0  0  0  0  0
    3.6891    0.5666    2.0265 C   0  0  0  0  0  0  0  0  0  0  0  0
    3.6724    1.0438    0.7088 C   0  0  0  0  0  0  0  0  0  0  0  0
    2.5701    0.7609   -0.1127 C   0  0  0  0  0  0  0  0  0  0  0  0
    1.4725    0.0309    0.3793 C   0  0  0  0  0  0  0  0  0  0  0  0
    0.2986   -0.2605   -0.5336 C   0  0  0  0  0  0  0  0  0  0  0  0
   -1.0103    0.2743    0.0269 C   0  0  0  0  0  0  0  0  0  0  0  0
   -1.2778    1.6650    0.0664 C   0  0  0  0  0  0  0  0  0  0  0  0
   -0.3710    2.5959   -0.4502 O   0  0  0  0  0  0  0  0  0  0  0  0
   -2.4816    2.1441    0.6228 C   0  0  0  0  0  0  0  0  0  0  0  0
   -2.7667    3.6360    0.6287 C   0  0  0  0  0  0  0  0  0  0  0  0
   -3.2404    4.1104   -0.7309 C   0  0  0  0  0  0  0  0  0  0  0  0
   -4.5455    3.7619   -1.1309 C   0  0  0  0  0  0  0  0  0  0  0  0
   -5.0349    4.1367   -2.3827 C   0  0  0  0  0  0  0  0  0  0  0  0
   -4.2318    4.8646   -3.2577 C   0  0  0  0  0  0  0  0  0  0  0  0
   -2.9389    5.2256   -2.8830 C   0  0  0  0  0  0  0  0  0  0  0  0
   -2.4323    4.8677   -1.6271 C   0  0  0  0  0  0  0  0  0  0  0  0
   -1.1374    5.2958   -1.3227 O   0  0  0  0  0  0  0  0  0  0  0  0
   -3.4403    1.2348    1.1182 C   0  0  0  0  0  0  0  0  0  0  0  0
   -3.1678   -0.1528    1.1058 C   0  0  0  0  0  0  0  0  0  0  0  0
   -1.9660   -0.6233    0.5409 C   0  0  0  0  0  0  0  0  0  0  0  0
   -1.7166   -2.0043    0.4833 O   0  0  0  0  0  0  0  0  0  0  0  0
   -2.4839   -2.9738    1.2027 C   0  0  1  0  0  0  0  0  0  0  0  0
   -3.9666   -2.5869    1.2006 C   0  0  0  0  0  0  0  0  0  0  0  0
   -4.0863   -1.1720    1.6728 C   0  0  0  0  0  0  0  0  0  0  0  0
   -4.9000   -0.8917    2.5928 O   0  0  0  0  0  0  0  0  0  0  0  0
   -2.2858   -4.3427    0.5983 C   0  0  0  0  0  0  0  0  0  0  0  0
   -2.2061   -5.4763    1.4264 C   0  0  0  0  0  0  0  0  0  0  0  0
   -2.0403   -6.7471    0.8688 C   0  0  0  0  0  0  0  0  0  0  0  0
   -1.9627   -6.8981   -0.5178 C   0  0  0  0  0  0  0  0  0  0  0  0
   -2.0620   -5.7812   -1.3509 C   0  0  0  0  0  0  0  0  0  0  0  0
   -2.2287   -4.5082   -0.7978 C   0  0  0  0  0  0  0  0  0  0  0  0
   -4.6610    1.7383    1.5797 O   0  0  0  0  0  0  0  0  0  0  0  0
    4.8538    1.8031    0.1674 C   0  0  0  0  0  0  0  0  0  0  0  0
    5.9650    0.8515   -0.2022 C   0  0  0  0  0  0  0  0  0  0  0  0
    6.9610    0.5425    0.7419 C   0  0  0  0  0  0  0  0  0  0  0  0
    7.9782   -0.3636    0.4279 C   0  0  0  0  0  0  0  0  0  0  0  0
    8.0057   -0.9770   -0.8257 C   0  0  0  0  0  0  0  0  0  0  0  0
    7.0162   -0.6873   -1.7683 C   0  0  0  0  0  0  0  0  0  0  0  0
    5.9914    0.2217   -1.4638 C   0  0  0  0  0  0  0  0  0  0  0  0
    5.0020    0.4972   -2.4083 O   0  0  0  0  0  0  0  0  0  0  0  0
    0.4952   -1.6299    3.1337 H   0  0  0  0  0  0  0  0  0  0  0  0
    2.6560   -0.5611    3.5320 H   0  0  0  0  0  0  0  0  0  0  0  0
    4.5369    0.7657    2.6696 H   0  0  0  0  0  0  0  0  0  0  0  0
    2.5686    1.1090   -1.1384 H   0  0  0  0  0  0  0  0  0  0  0  0
    0.2602   -1.3561   -0.7010 H   0  0  0  0  0  0  0  0  0  0  0  0
    0.4561    0.1676   -1.5467 H   0  0  0  0  0  0  0  0  0  0  0  0
    0.4839    2.3473   -0.9236 H   0  0  0  0  0  0  0  0  0  0  0  0
   -3.5456    3.8861    1.3789 H   0  0  0  0  0  0  0  0  0  0  0  0
   -1.8775    4.1793    0.9945 H   0  0  0  0  0  0  0  0  0  0  0  0
   -5.1926    3.1964   -0.4734 H   0  0  0  0  0  0  0  0  0  0  0  0
   -6.0408    3.8631   -2.6725 H   0  0  0  0  0  0  0  0  0  0  0  0
   -4.6135    5.1537   -4.2277 H   0  0  0  0  0  0  0  0  0  0  0  0
   -2.3272    5.7983   -3.5696 H   0  0  0  0  0  0  0  0  0  0  0  0
   -0.6806    5.1580   -0.4331 H   0  0  0  0  0  0  0  0  0  0  0  0
   -2.1216   -2.9782    2.2569 H   0  0  0  0  0  0  0  0  0  0  0  0
   -4.3785   -2.6538    0.1697 H   0  0  0  0  0  0  0  0  0  0  0  0
   -4.5413   -3.2709    1.8631 H   0  0  0  0  0  0  0  0  0  0  0  0
   -2.2686   -5.3749    2.5017 H   0  0  0  0  0  0  0  0  0  0  0  0
   -1.9716   -7.6149    1.5108 H   0  0  0  0  0  0  0  0  0  0  0  0
   -1.8295   -7.8820   -0.9460 H   0  0  0  0  0  0  0  0  0  0  0  0
   -2.0101   -5.9006   -2.4251 H   0  0  0  0  0  0  0  0  0  0  0  0
   -2.3119   -3.6514   -1.4566 H   0  0  0  0  0  0  0  0  0  0  0  0
   -5.4930    1.1809    1.7004 H   0  0  0  0  0  0  0  0  0  0  0  0
    5.2073    2.5306    0.9304 H   0  0  0  0  0  0  0  0  0  0  0  0
    4.5593    2.4121   -0.7152 H   0  0  0  0  0  0  0  0  0  0  0  0
    6.9494    1.0042    1.7213 H   0  0  0  0  0  0  0  0  0  0  0  0
    8.7439   -0.5941    1.1578 H   0  0  0  0  0  0  0  0  0  0  0  0
    8.7928   -1.6795   -1.0658 H   0  0  0  0  0  0  0  0  0  0  0  0
    7.0439   -1.1726   -2.7357 H   0  0  0  0  0  0  0  0  0  0  0  0
    4.9988    0.0541   -3.3194 H   0  0  0  0  0  0  0  0  0  0  0  0
  1  2  1  0
  2  3  2  0
  3  4  1  0
  4  5  2  0
  5  6  1  0
  6  7  2  0
  7  8  1  0
  8  9  1  0
  9 10  2  0
 10 11  1  0
 10 12  1  0
 12 13  1  0
 13 14  1  0
 14 15  2  0
 15 16  1  0
 16 17  2  0
 17 18  1  0
 18 19  2  0
 19 20  1  0
 12 21  2  0
 21 22  1  0
 22 23  2  0
 23 24  1  0
 24 25  1  0
 25 26  1  0
 26 27  1  0
 27 28  2  0
 25 29  1  0
 29 30  2  0
 30 31  1  0
 31 32  2  0
 32 33  1  0
 33 34  2  0
 21 35  1  0
  5 36  1  0
 36 37  1  0
 37 38  2  0
 38 39  1  0
 39 40  2  0
 40 41  1  0
 41 42  2  0
 42 43  1  0
  7  2  1  0
 23  9  1  0
 34 29  1  0
 42 37  1  0
 19 14  1  0
 27 22  1  0
  1 44  1  0
  3 45  1  0
  4 46  1  0
  6 47  1  0
  8 48  1  0
  8 49  1  0
 11 50  1  0
 13 51  1  0
 13 52  1  0
 15 53  1  0
 16 54  1  0
 17 55  1  0
 18 56  1  0
 20 57  1  0
 25 58  1  1
 26 59  1  0
 26 60  1  0
 30 61  1  0
 31 62  1  0
 32 63  1  0
 33 64  1  0
 34 65  1  0
 35 66  1  0
 36 67  1  0
 36 68  1  0
 38 69  1  0
 39 70  1  0
 40 71  1  0
 41 72  1  0
 43 73  1  0
M  END
$$$$
