
     RDKit          3D

 42 43  0  0  0  0  0  0  0  0999 V2000
    4.1568    0.1396    0.1387 C   0  0  0  0  0  0  0  0  0  0  0  0
    2.8177    0.7275   -0.3378 C   0  0  0  0  0  0  0  0  0  0  0  0
    1.5959    0.0717    0.3872 C   0  0  0  0  0  0  0  0  0  0  0  0
    1.3382   -1.4094   -0.0257 C   0  0  0  0  0  0  0  0  0  0  0  0
    0.2048   -1.5978   -1.0506 C   0  0  0  0  0  0  0  0  0  0  0  0
   -1.2629   -1.5401   -0.4879 C   0  0  0  0  0  0  0  0  0  0  0  0
   -1.3758   -0.9220    0.9618 C   0  0  0  0  0  0  0  0  0  0  0  0
   -0.8099    0.5059    1.1916 C   0  0  0  0  0  0  0  0  0  0  0  0
    0.3407    0.9767    0.2826 C   0  0  0  0  0  0  0  0  0  0  0  0
   -2.0314    1.3724    1.1267 C   0  0  0  0  0  0  0  0  0  0  0  0
   -3.1370    0.6564    1.2956 C   0  0  0  0  0  0  0  0  0  0  0  0
   -2.8410   -0.7959    1.4359 C   0  0  0  0  0  0  0  0  0  0  0  0
   -2.0152    2.8746    1.1350 C   0  0  0  0  0  0  0  0  0  0  0  0
   -2.1569   -0.7817   -1.5116 C   0  0  0  0  0  0  0  0  0  0  0  0
   -1.7395   -2.8651   -0.3806 O   0  0  0  0  0  0  0  0  0  0  0  0
    2.7293    0.6785   -1.8719 C   0  0  0  0  0  0  0  0  0  0  0  0
    4.9990    0.7336   -0.2765 H   0  0  0  0  0  0  0  0  0  0  0  0
    4.2270    0.1819    1.2463 H   0  0  0  0  0  0  0  0  0  0  0  0
    4.2842   -0.9120   -0.1898 H   0  0  0  0  0  0  0  0  0  0  0  0
    2.8450    1.8030   -0.0520 H   0  0  0  0  0  0  0  0  0  0  0  0
    1.8591    0.0512    1.4693 H   0  0  0  0  0  0  0  0  0  0  0  0
    2.2586   -1.8515   -0.4568 H   0  0  0  0  0  0  0  0  0  0  0  0
    1.1421   -2.0305    0.8723 H   0  0  0  0  0  0  0  0  0  0  0  0
    0.3676   -2.5835   -1.5399 H   0  0  0  0  0  0  0  0  0  0  0  0
    0.3486   -0.8680   -1.8748 H   0  0  0  0  0  0  0  0  0  0  0  0
   -0.8722   -1.6172    1.6688 H   0  0  0  0  0  0  0  0  0  0  0  0
   -0.4423    0.5610    2.2421 H   0  0  0  0  0  0  0  0  0  0  0  0
    0.0032    1.0924   -0.7637 H   0  0  0  0  0  0  0  0  0  0  0  0
    0.6293    1.9962    0.6200 H   0  0  0  0  0  0  0  0  0  0  0  0
   -4.1287    1.0848    1.4030 H   0  0  0  0  0  0  0  0  0  0  0  0
   -2.9220   -1.0696    2.5107 H   0  0  0  0  0  0  0  0  0  0  0  0
   -3.5599   -1.4180    0.8646 H   0  0  0  0  0  0  0  0  0  0  0  0
   -3.0452    3.2862    1.0718 H   0  0  0  0  0  0  0  0  0  0  0  0
   -1.5408    3.2342    2.0716 H   0  0  0  0  0  0  0  0  0  0  0  0
   -1.4389    3.2501    0.2646 H   0  0  0  0  0  0  0  0  0  0  0  0
   -1.9489    0.3054   -1.5191 H   0  0  0  0  0  0  0  0  0  0  0  0
   -3.2352   -0.9265   -1.2997 H   0  0  0  0  0  0  0  0  0  0  0  0
   -1.9817   -1.1689   -2.5386 H   0  0  0  0  0  0  0  0  0  0  0  0
   -1.8091   -3.2547   -1.2922 H   0  0  0  0  0  0  0  0  0  0  0  0
    1.7967    1.1600   -2.2294 H   0  0  0  0  0  0  0  0  0  0  0  0
    2.7686   -0.3657   -2.2456 H   0  0  0  0  0  0  0  0  0  0  0  0
    3.5820    1.2351   -2.3163 H   0  0  0  0  0  0  0  0  0  0  0  0
  1  2  1  0
  2  3  1  0
  3  4  1  0
  4  5  1  0
  5  6  1  0
  6  7  1  0
  7  8  1  0
  8  9  1  0
  8 10  1  0
 10 11  2  0
 11 12  1  0
 10 13  1  0
  6 14  1  0
  6 15  1  0
  2 16  1  0
  9  3  1  0
 12  7  1  0
  1 17  1  0
  1 18  1  0
  1 19  1  0
  2 20  1  0
  3 21  1  0
  4 22  1  0
  4 23  1  0
  5 24  1  0
  5 25  1  0
  7 26  1  0
  8 27  1  0
  9 28  1  0
  9 29  1  0
 11 30  1  0
 12 31  1  0
 12 32  1  0
 13 33  1  0
 13 34  1  0
 13 35  1  0
 14 36  1  0
 14 37  1  0
 14 38  1  0
 15 39  1  0
 16 40  1  0
 16 41  1  0
 16 42  1  0
M  END
$$$$
