
     RDKit          3D

 47 50  0  0  0  0  0  0  0  0999 V2000
    7.9971    0.7888    0.4968 C   0  0  0  0  0  0  0  0  0  0  0  0
    6.7971    0.8794    1.2565 O   0  0  0  0  0  0  0  0  0  0  0  0
    5.5140    0.4734    0.8433 C   0  0  0  0  0  0  0  0  0  0  0  0
    5.2419   -0.0866   -0.4302 C   0  0  0  0  0  0  0  0  0  0  0  0
    6.2517   -0.2606   -1.3749 O   0  0  0  0  0  0  0  0  0  0  0  0
    3.9338   -0.4715   -0.7587 C   0  0  0  0  0  0  0  0  0  0  0  0
    2.8863   -0.3206    0.1618 C   0  0  0  0  0  0  0  0  0  0  0  0
    3.1549    0.2557    1.4091 C   0  0  0  0  0  0  0  0  0  0  0  0
    4.4527    0.6427    1.7537 C   0  0  0  0  0  0  0  0  0  0  0  0
    4.6687    1.1981    3.0155 O   0  0  0  0  0  0  0  0  0  0  0  0
    1.4969   -0.7008   -0.1820 C   0  0  0  0  0  0  0  0  0  0  0  0
    0.5149    0.1142    0.1847 O   0  0  0  0  0  0  0  0  0  0  0  0
   -0.7643   -0.1110   -0.0898 C   0  0  0  0  0  0  0  0  0  0  0  0
   -1.7152    0.7992    0.3725 C   0  0  0  0  0  0  0  0  0  0  0  0
   -3.0681    0.5882    0.1284 C   0  0  0  0  0  0  0  0  0  0  0  0
   -4.0127    1.4964    0.6181 O   0  0  0  0  0  0  0  0  0  0  0  0
   -5.4184    1.2144    0.6680 C   0  0  0  0  0  0  0  0  0  0  0  0
   -5.7587    0.6619    2.0581 C   0  0  0  0  0  0  0  0  0  0  0  0
   -6.1800    2.5221    0.4246 C   0  0  0  0  0  0  0  0  0  0  0  0
   -5.8189    0.1941   -0.3804 C   0  0  0  0  0  0  0  0  0  0  0  0
   -4.9271   -0.6340   -0.9321 C   0  0  0  0  0  0  0  0  0  0  0  0
   -3.4861   -0.5096   -0.6313 C   0  0  0  0  0  0  0  0  0  0  0  0
   -2.5419   -1.4180   -1.1515 C   0  0  0  0  0  0  0  0  0  0  0  0
   -1.1601   -1.2543   -0.8304 C   0  0  0  0  0  0  0  0  0  0  0  0
   -0.1448   -2.1823   -1.1665 C   0  0  0  0  0  0  0  0  0  0  0  0
   -0.4178   -3.2859   -1.7075 O   0  0  0  0  0  0  0  0  0  0  0  0
    1.1935   -1.8995   -0.8502 C   0  0  0  0  0  0  0  0  0  0  0  0
    2.2088   -2.8097   -1.1570 O   0  0  0  0  0  0  0  0  0  0  0  0
   -3.0136   -2.4299   -1.9954 O   0  0  0  0  0  0  0  0  0  0  0  0
    7.9172    1.4051   -0.4232 H   0  0  0  0  0  0  0  0  0  0  0  0
    8.8368    1.1824    1.1052 H   0  0  0  0  0  0  0  0  0  0  0  0
    8.2158   -0.2709    0.2481 H   0  0  0  0  0  0  0  0  0  0  0  0
    6.0675   -0.6593   -2.2882 H   0  0  0  0  0  0  0  0  0  0  0  0
    3.7344   -0.8663   -1.7469 H   0  0  0  0  0  0  0  0  0  0  0  0
    2.3551    0.3948    2.1269 H   0  0  0  0  0  0  0  0  0  0  0  0
    5.5842    1.4994    3.3267 H   0  0  0  0  0  0  0  0  0  0  0  0
   -1.4022    1.6647    0.9437 H   0  0  0  0  0  0  0  0  0  0  0  0
   -5.2015   -0.2819    2.2429 H   0  0  0  0  0  0  0  0  0  0  0  0
   -5.4718    1.3930    2.8441 H   0  0  0  0  0  0  0  0  0  0  0  0
   -6.8474    0.4542    2.1449 H   0  0  0  0  0  0  0  0  0  0  0  0
   -7.2780    2.3592    0.4871 H   0  0  0  0  0  0  0  0  0  0  0  0
   -5.9367    2.9234   -0.5827 H   0  0  0  0  0  0  0  0  0  0  0  0
   -5.8906    3.2831    1.1809 H   0  0  0  0  0  0  0  0  0  0  0  0
   -6.8689    0.0601   -0.6135 H   0  0  0  0  0  0  0  0  0  0  0  0
   -5.2786   -1.3940   -1.6186 H   0  0  0  0  0  0  0  0  0  0  0  0
    2.0284   -3.6863   -1.6312 H   0  0  0  0  0  0  0  0  0  0  0  0
   -2.4482   -2.9150   -2.6763 H   0  0  0  0  0  0  0  0  0  0  0  0
  1  2  1  0
  2  3  1  0
  3  4  2  0
  4  5  1  0
  4  6  1  0
  6  7  2  0
  7  8  1  0
  8  9  2  0
  9 10  1  0
  7 11  1  0
 11 12  1  0
 12 13  1  0
 13 14  2  0
 14 15  1  0
 15 16  1  0
 16 17  1  0
 17 18  1  0
 17 19  1  0
 17 20  1  0
 20 21  2  0
 21 22  1  0
 22 23  1  0
 23 24  2  0
 24 25  1  0
 25 26  2  0
 25 27  1  0
 27 28  1  0
 23 29  1  0
  9  3  1  0
 27 11  2  0
 24 13  1  0
 22 15  2  0
  1 30  1  0
  1 31  1  0
  1 32  1  0
  5 33  1  0
  6 34  1  0
  8 35  1  0
 10 36  1  0
 14 37  1  0
 18 38  1  0
 18 39  1  0
 18 40  1  0
 19 41  1  0
 19 42  1  0
 19 43  1  0
 20 44  1  0
 21 45  1  0
 28 46  1  0
 29 47  1  0
M  END
$$$$
