
     RDKit          3D

 57 59  0  0  0  0  0  0  0  0999 V2000
    4.0223   -2.0146   -0.4357 C   0  0  0  0  0  0  0  0  0  0  0  0
    3.4469   -0.6193   -0.5236 C   0  0  0  0  0  0  0  0  0  0  0  0
    2.2249   -0.3130   -0.0245 C   0  0  0  0  0  0  0  0  0  0  0  0
    1.3384   -1.2858    0.7180 C   0  0  0  0  0  0  0  0  0  0  0  0
   -0.1187   -1.0130    0.4038 C   0  0  0  0  0  0  0  0  0  0  0  0
   -0.7597   -1.7716   -0.5984 C   0  0  0  0  0  0  0  0  0  0  0  0
   -0.0525   -2.7441   -1.3075 O   0  0  0  0  0  0  0  0  0  0  0  0
   -2.1086   -1.5566   -0.8904 C   0  0  0  0  0  0  0  0  0  0  0  0
   -2.8366   -0.5828   -0.2109 C   0  0  0  0  0  0  0  0  0  0  0  0
   -2.2139    0.2169    0.7728 C   0  0  0  0  0  0  0  0  0  0  0  0
   -0.8419    0.0117    1.0725 C   0  0  0  0  0  0  0  0  0  0  0  0
   -0.2201    0.8329    2.0219 O   0  0  0  0  0  0  0  0  0  0  0  0
   -3.0046    1.2024    1.4079 C   0  0  0  0  0  0  0  0  0  0  0  0
   -2.5140    1.9633    2.2866 O   0  0  0  0  0  0  0  0  0  0  0  0
   -4.3571    1.3444    1.0567 C   0  0  0  0  0  0  0  0  0  0  0  0
   -4.9013    0.4816    0.0868 C   0  0  0  0  0  0  0  0  0  0  0  0
   -4.1223   -0.4202   -0.5048 O   0  0  0  0  0  0  0  0  0  0  0  0
   -6.3243    0.5504   -0.3207 C   0  0  0  0  0  0  0  0  0  0  0  0
   -6.6637    0.4021   -1.6765 C   0  0  0  0  0  0  0  0  0  0  0  0
   -8.0026    0.4337   -2.0796 C   0  0  0  0  0  0  0  0  0  0  0  0
   -9.0193    0.6033   -1.1339 C   0  0  0  0  0  0  0  0  0  0  0  0
   -8.6916    0.7353    0.2225 C   0  0  0  0  0  0  0  0  0  0  0  0
   -7.3530    0.7011    0.6288 C   0  0  0  0  0  0  0  0  0  0  0  0
  -10.3490    0.6353   -1.5506 O   0  0  0  0  0  0  0  0  0  0  0  0
   -5.1468    2.3434    1.6368 O   0  0  0  0  0  0  0  0  0  0  0  0
    4.2690    0.4699   -1.1826 C   0  0  0  0  0  0  0  0  0  0  0  0
    4.9139    1.4087   -0.1458 C   0  0  0  0  0  0  0  0  0  0  0  0
    5.8339    0.6645    0.8000 C   0  0  0  0  0  0  0  0  0  0  0  0
    7.1269    0.3655    0.5355 C   0  0  0  0  0  0  0  0  0  0  0  0
    7.8224    0.8419   -0.7177 C   0  0  0  0  0  0  0  0  0  0  0  0
    7.9348   -0.4218    1.5386 C   0  0  0  0  0  0  0  0  0  0  0  0
    3.3945   -2.7205   -1.0227 H   0  0  0  0  0  0  0  0  0  0  0  0
    5.0558   -2.0561   -0.8436 H   0  0  0  0  0  0  0  0  0  0  0  0
    4.0658   -2.3400    0.6266 H   0  0  0  0  0  0  0  0  0  0  0  0
    1.8817    0.7185   -0.0882 H   0  0  0  0  0  0  0  0  0  0  0  0
    1.5281   -1.2054    1.8089 H   0  0  0  0  0  0  0  0  0  0  0  0
    1.5839   -2.3387    0.4662 H   0  0  0  0  0  0  0  0  0  0  0  0
   -0.4915   -3.3021   -2.0313 H   0  0  0  0  0  0  0  0  0  0  0  0
   -2.5969   -2.1528   -1.6522 H   0  0  0  0  0  0  0  0  0  0  0  0
    0.7698    0.8158    2.2265 H   0  0  0  0  0  0  0  0  0  0  0  0
   -5.8908    0.2734   -2.4248 H   0  0  0  0  0  0  0  0  0  0  0  0
   -8.2507    0.3275   -3.1287 H   0  0  0  0  0  0  0  0  0  0  0  0
   -9.4734    0.8549    0.9631 H   0  0  0  0  0  0  0  0  0  0  0  0
   -7.1264    0.7630    1.6852 H   0  0  0  0  0  0  0  0  0  0  0  0
  -11.1083    0.7614   -0.8896 H   0  0  0  0  0  0  0  0  0  0  0  0
   -4.7817    2.9948    2.3212 H   0  0  0  0  0  0  0  0  0  0  0  0
    5.0557    0.0245   -1.8287 H   0  0  0  0  0  0  0  0  0  0  0  0
    3.6155    1.0674   -1.8582 H   0  0  0  0  0  0  0  0  0  0  0  0
    4.1092    1.8961    0.4520 H   0  0  0  0  0  0  0  0  0  0  0  0
    5.4579    2.2240   -0.6668 H   0  0  0  0  0  0  0  0  0  0  0  0
    5.3952    0.3346    1.7393 H   0  0  0  0  0  0  0  0  0  0  0  0
    7.8157    1.9501   -0.7604 H   0  0  0  0  0  0  0  0  0  0  0  0
    8.8838    0.5086   -0.7306 H   0  0  0  0  0  0  0  0  0  0  0  0
    7.3252    0.4304   -1.6188 H   0  0  0  0  0  0  0  0  0  0  0  0
    8.7421    0.2194    1.9561 H   0  0  0  0  0  0  0  0  0  0  0  0
    7.3092   -0.7952    2.3792 H   0  0  0  0  0  0  0  0  0  0  0  0
    8.3991   -1.2982    1.0345 H   0  0  0  0  0  0  0  0  0  0  0  0
  1  2  1  0
  2  3  2  0
  3  4  1  0
  4  5  1  0
  5  6  2  0
  6  7  1  0
  6  8  1  0
  8  9  2  0
  9 10  1  0
 10 11  2  0
 11 12  1  0
 10 13  1  0
 13 14  2  0
 13 15  1  0
 15 16  2  0
 16 17  1  0
 16 18  1  0
 18 19  2  0
 19 20  1  0
 20 21  2  0
 21 22  1  0
 22 23  2  0
 21 24  1  0
 15 25  1  0
  2 26  1  0
 26 27  1  0
 27 28  1  0
 28 29  2  3
 29 30  1  0
 29 31  1  0
 11  5  1  0
 23 18  1  0
 17  9  1  0
  1 32  1  0
  1 33  1  0
  1 34  1  0
  3 35  1  0
  4 36  1  0
  4 37  1  0
  7 38  1  0
  8 39  1  0
 12 40  1  0
 19 41  1  0
 20 42  1  0
 22 43  1  0
 23 44  1  0
 24 45  1  0
 25 46  1  0
 26 47  1  0
 26 48  1  0
 27 49  1  0
 27 50  1  0
 28 51  1  0
 30 52  1  0
 30 53  1  0
 30 54  1  0
 31 55  1  0
 31 56  1  0
 31 57  1  0
M  END
$$$$
