
     RDKit          3D

 45 45  0  0  0  0  0  0  0  0999 V2000
    7.2451    0.2979    1.7610 C   0  0  0  0  0  0  0  0  0  0  0  0
    6.0397    0.3235    1.0065 O   0  0  0  0  0  0  0  0  0  0  0  0
    5.0559   -0.6628    1.1188 C   0  0  0  0  0  0  0  0  0  0  0  0
    5.2280   -1.6335    1.9054 O   0  0  0  0  0  0  0  0  0  0  0  0
    3.8090   -0.6120    0.3248 C   0  0  0  0  0  0  0  0  0  0  0  0
    3.4351    0.3773   -0.5137 C   0  0  0  0  0  0  0  0  0  0  0  0
    2.1167    0.2487   -1.2417 C   0  0  0  0  0  0  0  0  0  0  0  0
    0.9429    0.5502   -0.3028 C   0  0  0  0  0  0  0  0  0  0  0  0
   -0.3729    0.3994   -1.0237 C   0  0  0  0  0  0  0  0  0  0  0  0
   -1.0530   -0.7649   -1.1363 C   0  0  0  0  0  0  0  0  0  0  0  0
   -2.3655   -0.7930   -1.8933 C   0  0  0  0  0  0  0  0  0  0  0  0
   -3.5739   -0.8815   -0.9520 C   0  0  0  0  0  0  0  0  0  0  0  0
   -3.7529    0.4067   -0.1313 C   0  0  1  0  0  0  0  0  0  0  0  0
   -4.9032    1.1302   -0.5223 O   0  0  0  0  0  0  0  0  0  0  0  0
   -4.9467    0.5279    0.7518 C   0  0  0  0  0  0  0  0  0  0  0  0
   -5.9837   -0.5975    0.8362 C   0  0  0  0  0  0  0  0  0  0  0  0
   -4.8846    1.5550    1.8812 C   0  0  0  0  0  0  0  0  0  0  0  0
   -0.5662   -2.0384   -0.4862 C   0  0  0  0  0  0  0  0  0  0  0  0
    4.2734    1.6073   -0.7490 C   0  0  0  0  0  0  0  0  0  0  0  0
    7.8170   -0.6266    1.5334 H   0  0  0  0  0  0  0  0  0  0  0  0
    7.0146    0.3419    2.8463 H   0  0  0  0  0  0  0  0  0  0  0  0
    7.8620    1.1783    1.4905 H   0  0  0  0  0  0  0  0  0  0  0  0
    3.1407   -1.4578    0.4440 H   0  0  0  0  0  0  0  0  0  0  0  0
    2.0771    0.9510   -2.1026 H   0  0  0  0  0  0  0  0  0  0  0  0
    2.0273   -0.7743   -1.6663 H   0  0  0  0  0  0  0  0  0  0  0  0
    1.0295    1.6018    0.0464 H   0  0  0  0  0  0  0  0  0  0  0  0
    0.9762   -0.0953    0.5998 H   0  0  0  0  0  0  0  0  0  0  0  0
   -0.7799    1.2970   -1.4821 H   0  0  0  0  0  0  0  0  0  0  0  0
   -2.3684   -1.6807   -2.5622 H   0  0  0  0  0  0  0  0  0  0  0  0
   -2.4742    0.0970   -2.5525 H   0  0  0  0  0  0  0  0  0  0  0  0
   -4.4726   -1.0762   -1.5767 H   0  0  0  0  0  0  0  0  0  0  0  0
   -3.4502   -1.7418   -0.2599 H   0  0  0  0  0  0  0  0  0  0  0  0
   -2.8905    1.0734    0.0801 H   0  0  0  0  0  0  0  0  0  0  0  0
   -6.2989   -0.9490   -0.1688 H   0  0  0  0  0  0  0  0  0  0  0  0
   -6.8896   -0.2368    1.3663 H   0  0  0  0  0  0  0  0  0  0  0  0
   -5.5568   -1.4497    1.4045 H   0  0  0  0  0  0  0  0  0  0  0  0
   -5.8879    2.0063    2.0306 H   0  0  0  0  0  0  0  0  0  0  0  0
   -4.5713    1.0510    2.8200 H   0  0  0  0  0  0  0  0  0  0  0  0
   -4.1648    2.3716    1.6557 H   0  0  0  0  0  0  0  0  0  0  0  0
   -0.5419   -1.9164    0.6168 H   0  0  0  0  0  0  0  0  0  0  0  0
   -1.2426   -2.8874   -0.7209 H   0  0  0  0  0  0  0  0  0  0  0  0
    0.4458   -2.3014   -0.8545 H   0  0  0  0  0  0  0  0  0  0  0  0
    4.4381    2.1439    0.2089 H   0  0  0  0  0  0  0  0  0  0  0  0
    3.7718    2.3151   -1.4411 H   0  0  0  0  0  0  0  0  0  0  0  0
    5.2460    1.3244   -1.2035 H   0  0  0  0  0  0  0  0  0  0  0  0
  1  2  1  0
  2  3  1  0
  3  4  2  0
  3  5  1  0
  5  6  2  0
  6  7  1  0
  7  8  1  0
  8  9  1  0
  9 10  2  0
 10 11  1  0
 11 12  1  0
 12 13  1  0
 13 14  1  0
 14 15  1  0
 15 16  1  0
 15 17  1  0
 10 18  1  0
  6 19  1  0
 15 13  1  0
  1 20  1  0
  1 21  1  0
  1 22  1  0
  5 23  1  0
  7 24  1  0
  7 25  1  0
  8 26  1  0
  8 27  1  0
  9 28  1  0
 11 29  1  0
 11 30  1  0
 12 31  1  0
 12 32  1  0
 13 33  1  1
 16 34  1  0
 16 35  1  0
 16 36  1  0
 17 37  1  0
 17 38  1  0
 17 39  1  0
 18 40  1  0
 18 41  1  0
 18 42  1  0
 19 43  1  0
 19 44  1  0
 19 45  1  0
M  END
$$$$
