
     RDKit          3D

 48 47  0  0  0  0  0  0  0  0999 V2000
    7.0948   -2.2238    0.6285 C   0  0  0  0  0  0  0  0  0  0  0  0
    5.8724   -1.4963    0.6469 O   0  0  0  0  0  0  0  0  0  0  0  0
    5.4554   -0.6943   -0.4192 C   0  0  0  0  0  0  0  0  0  0  0  0
    6.1743   -0.5924   -1.4503 O   0  0  0  0  0  0  0  0  0  0  0  0
    4.1661    0.0201   -0.2961 C   0  0  0  0  0  0  0  0  0  0  0  0
    3.5990    0.8193   -1.2258 C   0  0  0  0  0  0  0  0  0  0  0  0
    2.2702    1.4673   -0.9099 C   0  0  0  0  0  0  0  0  0  0  0  0
    1.1251    0.4569   -1.0438 C   0  0  0  0  0  0  0  0  0  0  0  0
   -0.1959    1.0967   -0.6980 C   0  0  0  0  0  0  0  0  0  0  0  0
   -0.7150    1.1532    0.5502 C   0  0  0  0  0  0  0  0  0  0  0  0
   -2.0383    1.8601    0.7673 C   0  0  0  0  0  0  0  0  0  0  0  0
   -3.2247    1.0847    0.1681 C   0  0  0  0  0  0  0  0  0  0  0  0
   -3.4731   -0.2752    0.8645 C   0  0  2  0  0  0  0  0  0  0  0  0
   -4.5022   -1.1668    0.0980 C   0  0  0  0  0  0  0  0  0  0  0  0
   -4.0785   -1.3665   -1.2309 O   0  0  0  0  0  0  0  0  0  0  0  0
   -5.8960   -0.5114    0.0539 C   0  0  0  0  0  0  0  0  0  0  0  0
   -4.6256   -2.5391    0.7938 C   0  0  0  0  0  0  0  0  0  0  0  0
   -3.9207   -0.0551    2.1808 O   0  0  0  0  0  0  0  0  0  0  0  0
   -0.0082    0.5346    1.7345 C   0  0  0  0  0  0  0  0  0  0  0  0
    4.2375    1.0936   -2.5636 C   0  0  0  0  0  0  0  0  0  0  0  0
    7.0937   -2.9481   -0.2134 H   0  0  0  0  0  0  0  0  0  0  0  0
    7.2019   -2.7808    1.5818 H   0  0  0  0  0  0  0  0  0  0  0  0
    7.9516   -1.5251    0.5218 H   0  0  0  0  0  0  0  0  0  0  0  0
    3.6405   -0.1262    0.6409 H   0  0  0  0  0  0  0  0  0  0  0  0
    2.0794    2.3199   -1.5975 H   0  0  0  0  0  0  0  0  0  0  0  0
    2.3000    1.8914    0.1168 H   0  0  0  0  0  0  0  0  0  0  0  0
    1.3090   -0.4404   -0.4163 H   0  0  0  0  0  0  0  0  0  0  0  0
    1.0777    0.1106   -2.0991 H   0  0  0  0  0  0  0  0  0  0  0  0
   -0.7402    1.5605   -1.5166 H   0  0  0  0  0  0  0  0  0  0  0  0
   -1.9895    2.8652    0.2939 H   0  0  0  0  0  0  0  0  0  0  0  0
   -2.2228    2.0382    1.8479 H   0  0  0  0  0  0  0  0  0  0  0  0
   -4.1293    1.7212    0.2711 H   0  0  0  0  0  0  0  0  0  0  0  0
   -3.0479    0.9353   -0.9184 H   0  0  0  0  0  0  0  0  0  0  0  0
   -2.5100   -0.8392    0.8813 H   0  0  0  0  0  0  0  0  0  0  0  0
   -3.1818   -1.7935   -1.2068 H   0  0  0  0  0  0  0  0  0  0  0  0
   -6.2631   -0.2799    1.0765 H   0  0  0  0  0  0  0  0  0  0  0  0
   -5.8748    0.4246   -0.5418 H   0  0  0  0  0  0  0  0  0  0  0  0
   -6.6263   -1.1936   -0.4324 H   0  0  0  0  0  0  0  0  0  0  0  0
   -5.0352   -2.4286    1.8209 H   0  0  0  0  0  0  0  0  0  0  0  0
   -3.6327   -3.0332    0.8632 H   0  0  0  0  0  0  0  0  0  0  0  0
   -5.3012   -3.2057    0.2158 H   0  0  0  0  0  0  0  0  0  0  0  0
   -3.1209   -0.0489    2.7687 H   0  0  0  0  0  0  0  0  0  0  0  0
    0.9993    0.9801    1.8605 H   0  0  0  0  0  0  0  0  0  0  0  0
   -0.5725    0.7004    2.6754 H   0  0  0  0  0  0  0  0  0  0  0  0
    0.0855   -0.5618    1.5894 H   0  0  0  0  0  0  0  0  0  0  0  0
    5.2161    1.5985   -2.4221 H   0  0  0  0  0  0  0  0  0  0  0  0
    3.6027    1.7549   -3.1894 H   0  0  0  0  0  0  0  0  0  0  0  0
    4.3744    0.1432   -3.1210 H   0  0  0  0  0  0  0  0  0  0  0  0
  1  2  1  0
  2  3  1  0
  3  4  2  0
  3  5  1  0
  5  6  2  0
  6  7  1  0
  7  8  1  0
  8  9  1  0
  9 10  2  0
 10 11  1  0
 11 12  1  0
 12 13  1  0
 13 14  1  0
 14 15  1  0
 14 16  1  0
 14 17  1  0
 13 18  1  0
 10 19  1  0
  6 20  1  0
  1 21  1  0
  1 22  1  0
  1 23  1  0
  5 24  1  0
  7 25  1  0
  7 26  1  0
  8 27  1  0
  8 28  1  0
  9 29  1  0
 11 30  1  0
 11 31  1  0
 12 32  1  0
 12 33  1  0
 13 34  1  1
 15 35  1  0
 16 36  1  0
 16 37  1  0
 16 38  1  0
 17 39  1  0
 17 40  1  0
 17 41  1  0
 18 42  1  0
 19 43  1  0
 19 44  1  0
 19 45  1  0
 20 46  1  0
 20 47  1  0
 20 48  1  0
M  END
$$$$
