
     RDKit          3D

 59 62  0  0  0  0  0  0  0  0999 V2000
   -0.2047    0.7170    2.5853 C   0  0  0  0  0  0  0  0  0  0  0  0
   -0.6329   -0.2426    1.6267 O   0  0  0  0  0  0  0  0  0  0  0  0
   -1.2038    0.1305    0.4047 C   0  0  0  0  0  0  0  0  0  0  0  0
   -2.5989    0.0298    0.2300 C   0  0  0  0  0  0  0  0  0  0  0  0
   -3.5055   -0.4470    1.3384 C   0  0  2  0  0  0  0  0  0  0  0  0
   -3.7416   -1.9618    1.2615 C   0  0  0  0  0  0  0  0  0  0  0  0
   -4.7654    0.3169    1.3340 N   0  0  0  0  0  0  0  0  0  0  0  0
   -5.4947    0.4177    0.0440 C   0  0  1  0  0  0  0  0  0  0  0  0
   -4.6414    0.1166   -1.2171 C   0  0  0  0  0  0  0  0  0  0  0  0
   -3.1747    0.3580   -1.0034 C   0  0  0  0  0  0  0  0  0  0  0  0
   -2.3633    0.7698   -2.0671 C   0  0  0  0  0  0  0  0  0  0  0  0
   -0.9803    0.8751   -1.9089 C   0  0  0  0  0  0  0  0  0  0  0  0
   -0.3901    0.5657   -0.6644 C   0  0  0  0  0  0  0  0  0  0  0  0
    1.0837    0.6515   -0.4891 C   0  0  0  0  0  0  0  0  0  0  0  0
    1.6835    1.9135   -0.2920 C   0  0  0  0  0  0  0  0  0  0  0  0
    0.8603    3.1789   -0.2675 C   0  0  0  0  0  0  0  0  0  0  0  0
    3.0687    2.0053   -0.1353 C   0  0  0  0  0  0  0  0  0  0  0  0
    3.8860    0.8634   -0.1437 C   0  0  0  0  0  0  0  0  0  0  0  0
    3.3015   -0.4156   -0.3304 C   0  0  0  0  0  0  0  0  0  0  0  0
    1.8898   -0.5164   -0.5131 C   0  0  0  0  0  0  0  0  0  0  0  0
    1.3134   -1.7862   -0.7272 C   0  0  0  0  0  0  0  0  0  0  0  0
    2.0981   -2.9322   -0.7429 C   0  0  0  0  0  0  0  0  0  0  0  0
    3.4706   -2.8453   -0.5518 C   0  0  0  0  0  0  0  0  0  0  0  0
    4.0919   -1.6001   -0.3463 C   0  0  0  0  0  0  0  0  0  0  0  0
    5.4833   -1.5204   -0.1575 O   0  0  0  0  0  0  0  0  0  0  0  0
    6.3744   -2.6315   -0.1528 C   0  0  0  0  0  0  0  0  0  0  0  0
    5.2772    0.9801    0.0285 O   0  0  0  0  0  0  0  0  0  0  0  0
    5.9818    2.2022    0.2255 C   0  0  0  0  0  0  0  0  0  0  0  0
   -0.2160    1.2683   -3.0099 O   0  0  0  0  0  0  0  0  0  0  0  0
   -6.7686   -0.4414    0.0521 C   0  0  0  0  0  0  0  0  0  0  0  0
    0.0823    0.1922    3.5192 H   0  0  0  0  0  0  0  0  0  0  0  0
    0.6753    1.2760    2.2118 H   0  0  0  0  0  0  0  0  0  0  0  0
   -1.0294    1.4260    2.8102 H   0  0  0  0  0  0  0  0  0  0  0  0
   -3.0173   -0.2464    2.3164 H   0  0  0  0  0  0  0  0  0  0  0  0
   -4.1818   -2.2607    0.2901 H   0  0  0  0  0  0  0  0  0  0  0  0
   -4.4237   -2.2826    2.0769 H   0  0  0  0  0  0  0  0  0  0  0  0
   -2.7765   -2.4979    1.3855 H   0  0  0  0  0  0  0  0  0  0  0  0
   -5.3867   -0.0074    2.1125 H   0  0  0  0  0  0  0  0  0  0  0  0
   -5.8280    1.4752   -0.0436 H   0  0  0  0  0  0  0  0  0  0  0  0
   -5.0150    0.7435   -2.0570 H   0  0  0  0  0  0  0  0  0  0  0  0
   -4.7650   -0.9417   -1.5323 H   0  0  0  0  0  0  0  0  0  0  0  0
   -2.8035    0.9880   -3.0326 H   0  0  0  0  0  0  0  0  0  0  0  0
   -0.0282    3.0511    0.3858 H   0  0  0  0  0  0  0  0  0  0  0  0
    1.4417    4.0386    0.1282 H   0  0  0  0  0  0  0  0  0  0  0  0
    0.5255    3.4264   -1.2960 H   0  0  0  0  0  0  0  0  0  0  0  0
    3.5094    2.9834    0.0006 H   0  0  0  0  0  0  0  0  0  0  0  0
    0.2506   -1.9082   -0.8881 H   0  0  0  0  0  0  0  0  0  0  0  0
    1.6372   -3.8982   -0.9056 H   0  0  0  0  0  0  0  0  0  0  0  0
    4.0444   -3.7614   -0.5698 H   0  0  0  0  0  0  0  0  0  0  0  0
    6.1069   -3.3327    0.6656 H   0  0  0  0  0  0  0  0  0  0  0  0
    7.4074   -2.2654    0.0183 H   0  0  0  0  0  0  0  0  0  0  0  0
    6.3410   -3.1525   -1.1329 H   0  0  0  0  0  0  0  0  0  0  0  0
    7.0636    1.9822    0.3327 H   0  0  0  0  0  0  0  0  0  0  0  0
    5.8417    2.8699   -0.6507 H   0  0  0  0  0  0  0  0  0  0  0  0
    5.6287    2.7022    1.1520 H   0  0  0  0  0  0  0  0  0  0  0  0
    0.7936    1.3365   -2.9823 H   0  0  0  0  0  0  0  0  0  0  0  0
   -7.4417   -0.1200    0.8752 H   0  0  0  0  0  0  0  0  0  0  0  0
   -7.3168   -0.3231   -0.9071 H   0  0  0  0  0  0  0  0  0  0  0  0
   -6.5181   -1.5134    0.1934 H   0  0  0  0  0  0  0  0  0  0  0  0
  1  2  1  0
  2  3  1  0
  3  4  2  0
  4  5  1  0
  5  6  1  0
  5  7  1  0
  7  8  1  0
  8  9  1  0
  9 10  1  0
 10 11  2  0
 11 12  1  0
 12 13  2  0
 13 14  1  0
 14 15  2  0
 15 16  1  0
 15 17  1  0
 17 18  2  0
 18 19  1  0
 19 20  2  0
 20 21  1  0
 21 22  2  0
 22 23  1  0
 23 24  2  0
 24 25  1  0
 25 26  1  0
 18 27  1  0
 27 28  1  0
 12 29  1  0
  8 30  1  0
 13  3  1  0
 20 14  1  0
 10  4  1  0
 24 19  1  0
  1 31  1  0
  1 32  1  0
  1 33  1  0
  5 34  1  1
  6 35  1  0
  6 36  1  0
  6 37  1  0
  7 38  1  0
  8 39  1  6
  9 40  1  0
  9 41  1  0
 11 42  1  0
 16 43  1  0
 16 44  1  0
 16 45  1  0
 17 46  1  0
 21 47  1  0
 22 48  1  0
 23 49  1  0
 26 50  1  0
 26 51  1  0
 26 52  1  0
 28 53  1  0
 28 54  1  0
 28 55  1  0
 29 56  1  0
 30 57  1  0
 30 58  1  0
 30 59  1  0
M  END
$$$$
