
     RDKit          3D

 50 53  0  0  0  0  0  0  0  0999 V2000
    3.0054   -0.4400   -3.2135 O   0  0  0  0  0  0  0  0  0  0  0  0
    4.0012   -0.4791   -2.2277 C   0  0  0  0  0  0  0  0  0  0  0  0
    3.5314    0.2497   -0.9640 C   0  0  2  0  0  0  0  0  0  0  0  0
    2.3119   -0.2982   -0.5121 O   0  0  0  0  0  0  0  0  0  0  0  0
    1.4561    0.7729   -0.1760 C   0  0  2  0  0  0  0  0  0  0  0  0
    2.2409    2.0740   -0.2224 C   0  0  1  0  0  0  0  0  0  0  0  0
    3.3494    1.7482   -1.1861 C   0  0  1  0  0  0  0  0  0  0  0  0
    4.5257    2.4457   -0.8706 O   0  0  0  0  0  0  0  0  0  0  0  0
    1.4384    3.1243   -0.6949 O   0  0  0  0  0  0  0  0  0  0  0  0
    0.9264    0.5727    1.1326 O   0  0  0  0  0  0  0  0  0  0  0  0
    0.0101   -0.4455    1.4165 C   0  0  0  0  0  0  0  0  0  0  0  0
   -1.3211   -0.3889    0.9615 C   0  0  0  0  0  0  0  0  0  0  0  0
   -2.1448   -1.3984    1.2174 O   0  0  0  0  0  0  0  0  0  0  0  0
   -1.7879   -2.4786    1.9024 C   0  0  0  0  0  0  0  0  0  0  0  0
   -0.4650   -2.6246    2.3974 C   0  0  0  0  0  0  0  0  0  0  0  0
    0.4259   -1.5484    2.1699 C   0  0  0  0  0  0  0  0  0  0  0  0
    1.5926   -1.5427    2.6418 O   0  0  0  0  0  0  0  0  0  0  0  0
   -0.1302   -3.8210    3.1011 C   0  0  0  0  0  0  0  0  0  0  0  0
    1.1580   -4.1324    3.5469 O   0  0  0  0  0  0  0  0  0  0  0  0
   -1.1243   -4.7746    3.3534 C   0  0  0  0  0  0  0  0  0  0  0  0
   -2.4228   -4.6059    2.8745 C   0  0  0  0  0  0  0  0  0  0  0  0
   -2.7480   -3.4654    2.1389 C   0  0  0  0  0  0  0  0  0  0  0  0
   -3.3819   -5.5838    3.1296 O   0  0  0  0  0  0  0  0  0  0  0  0
   -1.8522    0.7703    0.2100 C   0  0  0  0  0  0  0  0  0  0  0  0
   -1.5675    2.0870    0.6038 C   0  0  0  0  0  0  0  0  0  0  0  0
   -2.0674    3.1775   -0.1161 C   0  0  0  0  0  0  0  0  0  0  0  0
   -1.7310    4.4575    0.3295 O   0  0  0  0  0  0  0  0  0  0  0  0
   -2.8860    2.9515   -1.2489 C   0  0  0  0  0  0  0  0  0  0  0  0
   -3.1949    1.6308   -1.6249 C   0  0  0  0  0  0  0  0  0  0  0  0
   -2.6857    0.5539   -0.8942 C   0  0  0  0  0  0  0  0  0  0  0  0
   -4.0082    1.3671   -2.7275 O   0  0  0  0  0  0  0  0  0  0  0  0
   -3.4055    3.9992   -2.0135 O   0  0  0  0  0  0  0  0  0  0  0  0
    3.3774   -0.9205   -3.9985 H   0  0  0  0  0  0  0  0  0  0  0  0
    4.9329   -0.0029   -2.6079 H   0  0  0  0  0  0  0  0  0  0  0  0
    4.2268   -1.5382   -1.9701 H   0  0  0  0  0  0  0  0  0  0  0  0
    4.2925    0.0864   -0.1670 H   0  0  0  0  0  0  0  0  0  0  0  0
    0.6330    0.8056   -0.9239 H   0  0  0  0  0  0  0  0  0  0  0  0
    2.6524    2.3087    0.7891 H   0  0  0  0  0  0  0  0  0  0  0  0
    3.0292    1.9613   -2.2343 H   0  0  0  0  0  0  0  0  0  0  0  0
    4.3993    3.3735   -1.1997 H   0  0  0  0  0  0  0  0  0  0  0  0
    1.9369    3.9628   -0.5123 H   0  0  0  0  0  0  0  0  0  0  0  0
    2.0052   -3.7000    3.2121 H   0  0  0  0  0  0  0  0  0  0  0  0
   -0.8748   -5.6741    3.9031 H   0  0  0  0  0  0  0  0  0  0  0  0
   -3.7548   -3.3364    1.7603 H   0  0  0  0  0  0  0  0  0  0  0  0
   -4.3344   -5.4920    2.7956 H   0  0  0  0  0  0  0  0  0  0  0  0
   -0.9625    2.2744    1.4818 H   0  0  0  0  0  0  0  0  0  0  0  0
   -2.0420    5.3110   -0.1106 H   0  0  0  0  0  0  0  0  0  0  0  0
   -2.9283   -0.4562   -1.2027 H   0  0  0  0  0  0  0  0  0  0  0  0
   -4.4067    2.1054   -3.2946 H   0  0  0  0  0  0  0  0  0  0  0  0
   -3.2312    4.9766   -1.8303 H   0  0  0  0  0  0  0  0  0  0  0  0
  1  2  1  0
  2  3  1  0
  3  4  1  0
  4  5  1  0
  5  6  1  0
  6  7  1  0
  7  8  1  0
  6  9  1  0
  5 10  1  0
 10 11  1  0
 11 12  2  0
 12 13  1  0
 13 14  1  0
 14 15  2  0
 15 16  1  0
 16 17  2  0
 15 18  1  0
 18 19  1  0
 18 20  2  0
 20 21  1  0
 21 22  2  0
 21 23  1  0
 12 24  1  0
 24 25  2  0
 25 26  1  0
 26 27  1  0
 26 28  2  0
 28 29  1  0
 29 30  2  0
 29 31  1  0
 28 32  1  0
  7  3  1  0
 16 11  1  0
 30 24  1  0
 22 14  1  0
  1 33  1  0
  2 34  1  0
  2 35  1  0
  3 36  1  1
  5 37  1  6
  6 38  1  1
  7 39  1  6
  8 40  1  0
  9 41  1  0
 19 42  1  0
 20 43  1  0
 22 44  1  0
 23 45  1  0
 25 46  1  0
 27 47  1  0
 30 48  1  0
 31 49  1  0
 32 50  1  0
M  END
$$$$
