
     RDKit          3D

 53 56  0  0  0  0  0  0  0  0999 V2000
   -5.2012    4.7998   -1.8429 O   0  0  0  0  0  0  0  0  0  0  0  0
   -4.0109    4.2568   -1.3632 C   0  0  0  0  0  0  0  0  0  0  0  0
   -2.8753    5.0605   -1.2711 C   0  0  0  0  0  0  0  0  0  0  0  0
   -1.6652    4.5514   -0.7822 C   0  0  0  0  0  0  0  0  0  0  0  0
   -0.6138    5.4634   -0.6499 O   0  0  0  0  0  0  0  0  0  0  0  0
   -1.5744    3.1712   -0.4287 C   0  0  0  0  0  0  0  0  0  0  0  0
   -2.7475    2.3749   -0.5053 C   0  0  0  0  0  0  0  0  0  0  0  0
   -3.9479    2.9203   -0.9669 C   0  0  0  0  0  0  0  0  0  0  0  0
   -2.7299    1.0981   -0.1411 O   0  0  0  0  0  0  0  0  0  0  0  0
   -1.6393    0.4740    0.2876 C   0  0  0  0  0  0  0  0  0  0  0  0
   -0.4100    1.1617    0.3096 C   0  0  0  0  0  0  0  0  0  0  0  0
   -0.3810    2.5164   -0.0407 C   0  0  0  0  0  0  0  0  0  0  0  0
    0.7295    3.1090   -0.0437 O   0  0  0  0  0  0  0  0  0  0  0  0
    0.7837    0.5178    0.6552 O   0  0  0  0  0  0  0  0  0  0  0  0
    1.3812   -0.4851   -0.1695 C   0  0  2  0  0  0  0  0  0  0  0  0
    2.0789   -1.4161    0.6490 O   0  0  0  0  0  0  0  0  0  0  0  0
    3.3638   -0.9350    0.9979 C   0  0  1  0  0  0  0  0  0  0  0  0
    3.9226   -1.7966    2.1301 C   0  0  0  0  0  0  0  0  0  0  0  0
    4.3023   -0.9597   -0.2387 C   0  0  1  0  0  0  0  0  0  0  0  0
    3.5131   -0.7032   -1.5487 C   0  0  2  0  0  0  0  0  0  0  0  0
    2.2814    0.1768   -1.2553 C   0  0  1  0  0  0  0  0  0  0  0  0
    1.5574    0.4688   -2.4257 O   0  0  0  0  0  0  0  0  0  0  0  0
    3.1065   -1.9382   -2.0875 O   0  0  0  0  0  0  0  0  0  0  0  0
    5.2956    0.0208   -0.0757 O   0  0  0  0  0  0  0  0  0  0  0  0
   -1.7691   -0.9364    0.7228 C   0  0  0  0  0  0  0  0  0  0  0  0
   -2.6115   -1.8050    0.0122 C   0  0  0  0  0  0  0  0  0  0  0  0
   -2.7545   -3.1423    0.4071 C   0  0  0  0  0  0  0  0  0  0  0  0
   -3.5879   -3.9983   -0.3125 O   0  0  0  0  0  0  0  0  0  0  0  0
   -2.0573   -3.6200    1.5303 C   0  0  0  0  0  0  0  0  0  0  0  0
   -1.2284   -2.7489    2.2580 C   0  0  0  0  0  0  0  0  0  0  0  0
   -1.0975   -1.4147    1.8610 C   0  0  0  0  0  0  0  0  0  0  0  0
   -0.5292   -3.1896    3.3813 O   0  0  0  0  0  0  0  0  0  0  0  0
   -2.1827   -4.9501    1.9336 O   0  0  0  0  0  0  0  0  0  0  0  0
   -6.0400    4.2395   -1.9349 H   0  0  0  0  0  0  0  0  0  0  0  0
   -2.9398    6.1030   -1.5573 H   0  0  0  0  0  0  0  0  0  0  0  0
    0.2095    5.3193   -0.0840 H   0  0  0  0  0  0  0  0  0  0  0  0
   -4.8328    2.2977   -1.0257 H   0  0  0  0  0  0  0  0  0  0  0  0
    0.5830   -1.0663   -0.6801 H   0  0  0  0  0  0  0  0  0  0  0  0
    3.2888    0.1063    1.3946 H   0  0  0  0  0  0  0  0  0  0  0  0
    3.2479   -1.7402    3.0121 H   0  0  0  0  0  0  0  0  0  0  0  0
    4.9290   -1.4328    2.4303 H   0  0  0  0  0  0  0  0  0  0  0  0
    3.9982   -2.8589    1.8103 H   0  0  0  0  0  0  0  0  0  0  0  0
    4.7874   -1.9635   -0.3134 H   0  0  0  0  0  0  0  0  0  0  0  0
    4.1743   -0.1718   -2.2746 H   0  0  0  0  0  0  0  0  0  0  0  0
    2.6599    1.1446   -0.8565 H   0  0  0  0  0  0  0  0  0  0  0  0
    1.1824   -0.3804   -2.7764 H   0  0  0  0  0  0  0  0  0  0  0  0
    3.0942   -1.8384   -3.0748 H   0  0  0  0  0  0  0  0  0  0  0  0
    6.0457   -0.2249   -0.6781 H   0  0  0  0  0  0  0  0  0  0  0  0
   -3.1483   -1.4476   -0.8585 H   0  0  0  0  0  0  0  0  0  0  0  0
   -4.1034   -3.6797   -1.1250 H   0  0  0  0  0  0  0  0  0  0  0  0
   -0.4795   -0.7523    2.4538 H   0  0  0  0  0  0  0  0  0  0  0  0
   -0.5896   -4.1445    3.7132 H   0  0  0  0  0  0  0  0  0  0  0  0
   -2.7683   -5.6117    1.4383 H   0  0  0  0  0  0  0  0  0  0  0  0
  1  2  1  0
  2  3  2  0
  3  4  1  0
  4  5  1  0
  4  6  2  0
  6  7  1  0
  7  8  2  0
  7  9  1  0
  9 10  1  0
 10 11  2  0
 11 12  1  0
 12 13  2  0
 11 14  1  0
 14 15  1  0
 15 16  1  0
 16 17  1  0
 17 18  1  0
 17 19  1  0
 19 20  1  0
 20 21  1  0
 21 22  1  0
 20 23  1  0
 19 24  1  0
 10 25  1  0
 25 26  2  0
 26 27  1  0
 27 28  1  0
 27 29  2  0
 29 30  1  0
 30 31  2  0
 30 32  1  0
 29 33  1  0
  8  2  1  0
 21 15  1  0
 31 25  1  0
 12  6  1  0
  1 34  1  0
  3 35  1  0
  5 36  1  0
  8 37  1  0
 15 38  1  6
 17 39  1  1
 18 40  1  0
 18 41  1  0
 18 42  1  0
 19 43  1  6
 20 44  1  6
 21 45  1  1
 22 46  1  0
 23 47  1  0
 24 48  1  0
 26 49  1  0
 28 50  1  0
 31 51  1  0
 32 52  1  0
 33 53  1  0
M  END
$$$$
