
     RDKit          3D

 39 43  0  0  0  0  0  0  0  0999 V2000
    4.2643    1.3843    0.3761 C   0  0  0  0  0  0  0  0  0  0  0  0
    3.5295    0.8412   -0.6998 O   0  0  0  0  0  0  0  0  0  0  0  0
    2.7346   -0.2509   -0.2606 C   0  0  0  0  0  0  0  0  0  0  0  0
    2.6602   -1.2893   -1.3399 C   0  0  0  0  0  0  0  0  0  0  0  0
    3.2698   -1.1621   -2.3918 O   0  0  0  0  0  0  0  0  0  0  0  0
    1.8484   -2.5159   -1.0708 C   0  0  0  0  0  0  0  0  0  0  0  0
    0.4709   -2.1278   -0.6082 C   0  0  0  0  0  0  0  0  0  0  0  0
    0.2005   -0.8310   -0.0688 C   0  0  0  0  0  0  0  0  0  0  0  0
    1.3028    0.2011    0.1724 C   0  0  0  0  0  0  0  0  0  0  0  0
    0.8489    1.5467   -0.4350 C   0  0  0  0  0  0  0  0  0  0  0  0
   -0.4686    1.9646    0.1810 C   0  0  0  0  0  0  0  0  0  0  0  0
   -0.7402    3.3233    0.4056 C   0  0  0  0  0  0  0  0  0  0  0  0
   -1.9352    3.7109    1.0133 C   0  0  0  0  0  0  0  0  0  0  0  0
   -2.8642    2.7475    1.4070 C   0  0  0  0  0  0  0  0  0  0  0  0
   -2.6161    1.3926    1.1721 C   0  0  0  0  0  0  0  0  0  0  0  0
   -1.4315    0.9854    0.5278 C   0  0  0  0  0  0  0  0  0  0  0  0
   -1.1410   -0.4440    0.2085 C   0  0  0  0  0  0  0  0  0  0  0  0
   -2.1432   -1.4074    0.0144 C   0  0  0  0  0  0  0  0  0  0  0  0
   -1.8620   -2.6615   -0.4237 C   0  0  0  0  0  0  0  0  0  0  0  0
   -0.5738   -3.0626   -0.7445 C   0  0  0  0  0  0  0  0  0  0  0  0
   -3.0296   -3.3906   -0.5411 O   0  0  0  0  0  0  0  0  0  0  0  0
   -4.1204   -2.5425   -0.1670 C   0  0  0  0  0  0  0  0  0  0  0  0
   -3.5136   -1.2887    0.1664 O   0  0  0  0  0  0  0  0  0  0  0  0
    5.0481    0.6716    0.7144 H   0  0  0  0  0  0  0  0  0  0  0  0
    3.6021    1.6634    1.2258 H   0  0  0  0  0  0  0  0  0  0  0  0
    4.7728    2.3065    0.0280 H   0  0  0  0  0  0  0  0  0  0  0  0
    3.2025   -0.7820    0.6055 H   0  0  0  0  0  0  0  0  0  0  0  0
    1.7824   -3.1317   -1.9951 H   0  0  0  0  0  0  0  0  0  0  0  0
    2.3436   -3.1183   -0.2800 H   0  0  0  0  0  0  0  0  0  0  0  0
    1.3558    0.3549    1.2747 H   0  0  0  0  0  0  0  0  0  0  0  0
    0.7283    1.4481   -1.5357 H   0  0  0  0  0  0  0  0  0  0  0  0
    1.6087    2.3315   -0.2332 H   0  0  0  0  0  0  0  0  0  0  0  0
   -0.0206    4.0815    0.1225 H   0  0  0  0  0  0  0  0  0  0  0  0
   -2.1348    4.7593    1.1934 H   0  0  0  0  0  0  0  0  0  0  0  0
   -3.7791    3.0511    1.8995 H   0  0  0  0  0  0  0  0  0  0  0  0
   -3.3426    0.6756    1.5224 H   0  0  0  0  0  0  0  0  0  0  0  0
   -0.3936   -4.0579   -1.1313 H   0  0  0  0  0  0  0  0  0  0  0  0
   -4.6458   -2.9610    0.7169 H   0  0  0  0  0  0  0  0  0  0  0  0
   -4.8185   -2.4157   -1.0208 H   0  0  0  0  0  0  0  0  0  0  0  0
  1  2  1  0
  2  3  1  0
  3  4  1  0
  4  5  2  0
  4  6  1  0
  6  7  1  0
  7  8  2  0
  8  9  1  0
  9 10  1  0
 10 11  1  0
 11 12  2  0
 12 13  1  0
 13 14  2  0
 14 15  1  0
 15 16  2  0
 16 17  1  0
 17 18  2  0
 18 19  1  0
 19 20  2  0
 19 21  1  0
 21 22  1  0
 22 23  1  0
  9  3  1  0
 16 11  1  0
 23 18  1  0
 20  7  1  0
 17  8  1  0
  1 24  1  0
  1 25  1  0
  1 26  1  0
  3 27  1  0
  6 28  1  0
  6 29  1  0
  9 30  1  0
 10 31  1  0
 10 32  1  0
 12 33  1  0
 13 34  1  0
 14 35  1  0
 15 36  1  0
 20 37  1  0
 22 38  1  0
 22 39  1  0
M  END
$$$$
