
     RDKit          3D

 48 51  0  0  0  0  0  0  0  0999 V2000
    1.3275   -2.5443   -0.3630 C   0  0  0  0  0  0  0  0  0  0  0  0
    0.5133   -1.4142   -0.5860 O   0  0  0  0  0  0  0  0  0  0  0  0
    0.5878   -0.5119    0.5069 C   0  0  1  0  0  0  0  0  0  0  0  0
    1.3393    0.7565    0.0504 C   0  0  1  0  0  0  0  0  0  0  0  0
    1.2182    1.8593    1.0739 C   0  0  0  0  0  0  0  0  0  0  0  0
    0.0865    2.0453    1.7685 C   0  0  0  0  0  0  0  0  0  0  0  0
   -1.0802    1.0975    1.6744 C   0  0  0  0  0  0  0  0  0  0  0  0
   -0.8489   -0.2001    0.9848 C   0  0  2  0  0  0  0  0  0  0  0  0
   -1.7884   -1.3509    1.3868 C   0  0  0  0  0  0  0  0  0  0  0  0
   -3.1651   -0.9889    1.2727 O   0  0  0  0  0  0  0  0  0  0  0  0
   -3.8494   -0.9399    0.0513 C   0  0  0  0  0  0  0  0  0  0  0  0
   -3.2631   -1.2733   -1.0158 O   0  0  0  0  0  0  0  0  0  0  0  0
   -5.2588   -0.4927    0.0159 C   0  0  0  0  0  0  0  0  0  0  0  0
   -5.9698   -0.4512   -1.1986 C   0  0  0  0  0  0  0  0  0  0  0  0
   -7.3008   -0.0230   -1.2245 C   0  0  0  0  0  0  0  0  0  0  0  0
   -7.9348    0.3672   -0.0428 C   0  0  0  0  0  0  0  0  0  0  0  0
   -7.2387    0.3312    1.1675 C   0  0  0  0  0  0  0  0  0  0  0  0
   -5.9074   -0.0959    1.1995 C   0  0  0  0  0  0  0  0  0  0  0  0
   -1.4723    0.8846    0.3307 O   0  0  0  0  0  0  0  0  0  0  0  0
    2.7134    0.4334   -0.1613 O   0  0  0  0  0  0  0  0  0  0  0  0
    3.6000    1.2457   -0.8797 C   0  0  0  0  0  0  0  0  0  0  0  0
    3.1944    2.3235   -1.3964 O   0  0  0  0  0  0  0  0  0  0  0  0
    5.0118    0.8328   -1.0339 C   0  0  0  0  0  0  0  0  0  0  0  0
    5.9209    1.6327   -1.7522 C   0  0  0  0  0  0  0  0  0  0  0  0
    7.2544    1.2351   -1.8931 C   0  0  0  0  0  0  0  0  0  0  0  0
    7.6936    0.0390   -1.3209 C   0  0  0  0  0  0  0  0  0  0  0  0
    6.8000   -0.7631   -0.6077 C   0  0  0  0  0  0  0  0  0  0  0  0
    5.4654   -0.3706   -0.4633 C   0  0  0  0  0  0  0  0  0  0  0  0
    0.9680   -3.1241    0.5157 H   0  0  0  0  0  0  0  0  0  0  0  0
    2.3922   -2.2528   -0.2278 H   0  0  0  0  0  0  0  0  0  0  0  0
    1.2678   -3.2052   -1.2518 H   0  0  0  0  0  0  0  0  0  0  0  0
    1.1244   -0.9263    1.3969 H   0  0  0  0  0  0  0  0  0  0  0  0
    0.8900    1.1089   -0.9054 H   0  0  0  0  0  0  0  0  0  0  0  0
    2.0347    2.5639    1.2004 H   0  0  0  0  0  0  0  0  0  0  0  0
    0.0160    2.8861    2.4511 H   0  0  0  0  0  0  0  0  0  0  0  0
   -1.9623    1.2288    2.3363 H   0  0  0  0  0  0  0  0  0  0  0  0
   -1.5859   -2.2542    0.7724 H   0  0  0  0  0  0  0  0  0  0  0  0
   -1.5790   -1.6174    2.4438 H   0  0  0  0  0  0  0  0  0  0  0  0
   -5.4989   -0.7491   -2.1270 H   0  0  0  0  0  0  0  0  0  0  0  0
   -7.8413    0.0059   -2.1620 H   0  0  0  0  0  0  0  0  0  0  0  0
   -8.9652    0.6981   -0.0649 H   0  0  0  0  0  0  0  0  0  0  0  0
   -7.7309    0.6346    2.0825 H   0  0  0  0  0  0  0  0  0  0  0  0
   -5.3880   -0.1143    2.1495 H   0  0  0  0  0  0  0  0  0  0  0  0
    5.6030    2.5639   -2.2043 H   0  0  0  0  0  0  0  0  0  0  0  0
    7.9477    1.8555   -2.4463 H   0  0  0  0  0  0  0  0  0  0  0  0
    8.7261   -0.2667   -1.4313 H   0  0  0  0  0  0  0  0  0  0  0  0
    7.1412   -1.6905   -0.1664 H   0  0  0  0  0  0  0  0  0  0  0  0
    4.7917   -1.0089    0.0943 H   0  0  0  0  0  0  0  0  0  0  0  0
  1  2  1  0
  2  3  1  0
  3  4  1  0
  4  5  1  0
  5  6  2  0
  6  7  1  0
  7  8  1  0
  8  9  1  1
  9 10  1  0
 10 11  1  0
 11 12  2  0
 11 13  1  0
 13 14  2  0
 14 15  1  0
 15 16  2  0
 16 17  1  0
 17 18  2  0
  8 19  1  0
  4 20  1  0
 20 21  1  0
 21 22  2  0
 21 23  1  0
 23 24  2  0
 24 25  1  0
 25 26  2  0
 26 27  1  0
 27 28  2  0
  8  3  1  0
 18 13  1  0
 28 23  1  0
 19  7  1  0
  1 29  1  0
  1 30  1  0
  1 31  1  0
  3 32  1  1
  4 33  1  6
  5 34  1  0
  6 35  1  0
  7 36  1  0
  9 37  1  0
  9 38  1  0
 14 39  1  0
 15 40  1  0
 16 41  1  0
 17 42  1  0
 18 43  1  0
 24 44  1  0
 25 45  1  0
 26 46  1  0
 27 47  1  0
 28 48  1  0
M  END
$$$$
