
     RDKit          3D

 45 48  0  0  0  0  0  0  0  0999 V2000
   -2.1384    1.4148    0.3702 O   0  0  0  0  0  0  0  0  0  0  0  0
   -3.0874    0.7087    0.8093 C   0  0  0  0  0  0  0  0  0  0  0  0
   -4.4307    0.8062    0.1976 C   0  0  0  0  0  0  0  0  0  0  0  0
   -4.6656    1.6595   -0.8978 C   0  0  0  0  0  0  0  0  0  0  0  0
   -5.9396    1.7431   -1.4695 C   0  0  0  0  0  0  0  0  0  0  0  0
   -6.9889    0.9776   -0.9567 C   0  0  0  0  0  0  0  0  0  0  0  0
   -6.7668    0.1275    0.1296 C   0  0  0  0  0  0  0  0  0  0  0  0
   -5.4951    0.0390    0.7040 C   0  0  0  0  0  0  0  0  0  0  0  0
   -2.8745   -0.1709    1.8781 O   0  0  0  0  0  0  0  0  0  0  0  0
   -1.6042   -0.3776    2.4908 C   0  0  0  0  0  0  0  0  0  0  0  0
   -0.6474   -1.1309    1.5494 C   0  0  1  0  0  0  0  0  0  0  0  0
   -0.4631   -2.4805    1.9292 O   0  0  0  0  0  0  0  0  0  0  0  0
   -1.2095   -2.2546    0.7505 C   0  0  0  0  0  0  0  0  0  0  0  0
   -0.4467   -2.6542   -0.4846 C   0  0  0  0  0  0  0  0  0  0  0  0
    0.7985   -2.2188   -0.7365 C   0  0  0  0  0  0  0  0  0  0  0  0
    1.5788   -1.4157    0.2712 C   0  0  2  0  0  0  0  0  0  0  0  0
    0.6541   -0.4509    1.0539 C   0  0  2  0  0  0  0  0  0  0  0  0
    1.3451    0.1277    2.1333 O   0  0  0  0  0  0  0  0  0  0  0  0
    2.5877   -0.6778   -0.4187 O   0  0  0  0  0  0  0  0  0  0  0  0
    3.7785   -0.2396    0.1761 C   0  0  0  0  0  0  0  0  0  0  0  0
    4.0427   -0.5516    1.3704 O   0  0  0  0  0  0  0  0  0  0  0  0
    4.7351    0.5768   -0.6050 C   0  0  0  0  0  0  0  0  0  0  0  0
    5.9493    1.0033   -0.0330 C   0  0  0  0  0  0  0  0  0  0  0  0
    6.8497    1.7742   -0.7763 C   0  0  0  0  0  0  0  0  0  0  0  0
    6.5501    2.1267   -2.0947 C   0  0  0  0  0  0  0  0  0  0  0  0
    5.3501    1.7066   -2.6732 C   0  0  0  0  0  0  0  0  0  0  0  0
    4.4446    0.9363   -1.9344 C   0  0  0  0  0  0  0  0  0  0  0  0
   -3.8670    2.2617   -1.3116 H   0  0  0  0  0  0  0  0  0  0  0  0
   -6.1127    2.4015   -2.3111 H   0  0  0  0  0  0  0  0  0  0  0  0
   -7.9750    1.0439   -1.3991 H   0  0  0  0  0  0  0  0  0  0  0  0
   -7.5805   -0.4644    0.5272 H   0  0  0  0  0  0  0  0  0  0  0  0
   -5.3478   -0.6278    1.5449 H   0  0  0  0  0  0  0  0  0  0  0  0
   -1.7563   -0.9681    3.4191 H   0  0  0  0  0  0  0  0  0  0  0  0
   -1.1729    0.6007    2.7913 H   0  0  0  0  0  0  0  0  0  0  0  0
   -2.2709   -2.5559    0.8774 H   0  0  0  0  0  0  0  0  0  0  0  0
   -0.9421   -3.2848   -1.2145 H   0  0  0  0  0  0  0  0  0  0  0  0
    1.2883   -2.5262   -1.6565 H   0  0  0  0  0  0  0  0  0  0  0  0
    2.0511   -2.1410    0.9696 H   0  0  0  0  0  0  0  0  0  0  0  0
    0.3540    0.3687    0.3649 H   0  0  0  0  0  0  0  0  0  0  0  0
    1.5558   -0.5996    2.7752 H   0  0  0  0  0  0  0  0  0  0  0  0
    6.2029    0.7422    0.9870 H   0  0  0  0  0  0  0  0  0  0  0  0
    7.7803    2.0975   -0.3291 H   0  0  0  0  0  0  0  0  0  0  0  0
    7.2481    2.7240   -2.6684 H   0  0  0  0  0  0  0  0  0  0  0  0
    5.1194    1.9795   -3.6954 H   0  0  0  0  0  0  0  0  0  0  0  0
    3.5191    0.6250   -2.4040 H   0  0  0  0  0  0  0  0  0  0  0  0
  1  2  2  0
  2  3  1  0
  3  4  2  0
  4  5  1  0
  5  6  2  0
  6  7  1  0
  7  8  2  0
  2  9  1  0
  9 10  1  0
 11 10  1  1
 11 12  1  0
 12 13  1  0
 13 14  1  0
 14 15  2  0
 15 16  1  0
 16 17  1  0
 17 18  1  0
 16 19  1  0
 19 20  1  0
 20 21  2  0
 20 22  1  0
 22 23  2  0
 23 24  1  0
 24 25  2  0
 25 26  1  0
 26 27  2  0
  8  3  1  0
 13 11  1  0
 27 22  1  0
 17 11  1  0
  4 28  1  0
  5 29  1  0
  6 30  1  0
  7 31  1  0
  8 32  1  0
 10 33  1  0
 10 34  1  0
 13 35  1  0
 14 36  1  0
 15 37  1  0
 16 38  1  1
 17 39  1  6
 18 40  1  0
 23 41  1  0
 24 42  1  0
 25 43  1  0
 26 44  1  0
 27 45  1  0
M  END
$$$$
