
     RDKit          3D

 39 40  0  0  0  0  0  0  0  0999 V2000
   -2.6999    0.8105   -1.3865 C   0  0  0  0  0  0  0  0  0  0  0  0
   -2.9755    0.1743   -0.0182 C   0  0  0  0  0  0  0  0  0  0  0  0
   -1.6931   -0.1043    0.8356 C   0  0  0  0  0  0  0  0  0  0  0  0
   -1.1035    1.1888    1.4776 C   0  0  0  0  0  0  0  0  0  0  0  0
    0.0701    1.8558    0.7080 C   0  0  0  0  0  0  0  0  0  0  0  0
    1.1242    0.8746    0.0629 C   0  0  0  0  0  0  0  0  0  0  0  0
    0.8333   -0.5894    0.5175 C   0  0  0  0  0  0  0  0  0  0  0  0
   -0.6026   -0.9104    0.1519 C   0  0  0  0  0  0  0  0  0  0  0  0
   -0.8717   -1.7386   -0.7049 O   0  0  0  0  0  0  0  0  0  0  0  0
    1.9147   -1.5768    0.0772 C   0  0  0  0  0  0  0  0  0  0  0  0
    1.6909   -2.9019    0.0193 C   0  0  0  0  0  0  0  0  0  0  0  0
    3.3440   -1.0808   -0.0315 C   0  0  0  0  0  0  0  0  0  0  0  0
    3.5682    0.1967    0.7908 C   0  0  0  0  0  0  0  0  0  0  0  0
    2.5463    1.2553    0.4634 C   0  0  0  0  0  0  0  0  0  0  0  0
    2.8853    2.4303    0.4834 O   0  0  0  0  0  0  0  0  0  0  0  0
    1.0581    0.9980   -1.4823 C   0  0  0  0  0  0  0  0  0  0  0  0
   -3.8440   -1.0844   -0.1854 C   0  0  0  0  0  0  0  0  0  0  0  0
   -2.1160    1.7440   -1.2759 H   0  0  0  0  0  0  0  0  0  0  0  0
   -3.6606    1.0791   -1.8756 H   0  0  0  0  0  0  0  0  0  0  0  0
   -2.1645    0.1059   -2.0549 H   0  0  0  0  0  0  0  0  0  0  0  0
   -3.6063    0.8944    0.5491 H   0  0  0  0  0  0  0  0  0  0  0  0
   -2.0287   -0.7299    1.6927 H   0  0  0  0  0  0  0  0  0  0  0  0
   -1.8988    1.9453    1.6506 H   0  0  0  0  0  0  0  0  0  0  0  0
   -0.7254    0.9256    2.4910 H   0  0  0  0  0  0  0  0  0  0  0  0
   -0.3549    2.5366   -0.0594 H   0  0  0  0  0  0  0  0  0  0  0  0
    0.5673    2.5362    1.4335 H   0  0  0  0  0  0  0  0  0  0  0  0
    0.8855   -0.6166    1.6294 H   0  0  0  0  0  0  0  0  0  0  0  0
    2.4950   -3.5907   -0.2226 H   0  0  0  0  0  0  0  0  0  0  0  0
    0.7231   -3.3319    0.2487 H   0  0  0  0  0  0  0  0  0  0  0  0
    3.5921   -0.8983   -1.0985 H   0  0  0  0  0  0  0  0  0  0  0  0
    4.0517   -1.8506    0.3487 H   0  0  0  0  0  0  0  0  0  0  0  0
    4.5905    0.5809    0.5821 H   0  0  0  0  0  0  0  0  0  0  0  0
    3.5043   -0.0388    1.8750 H   0  0  0  0  0  0  0  0  0  0  0  0
    1.2945    2.0365   -1.8008 H   0  0  0  0  0  0  0  0  0  0  0  0
    0.0533    0.7508   -1.8680 H   0  0  0  0  0  0  0  0  0  0  0  0
    1.7808    0.3193   -1.9789 H   0  0  0  0  0  0  0  0  0  0  0  0
   -4.8134   -0.8152   -0.6571 H   0  0  0  0  0  0  0  0  0  0  0  0
   -4.0652   -1.5391    0.8035 H   0  0  0  0  0  0  0  0  0  0  0  0
   -3.3491   -1.8413   -0.8269 H   0  0  0  0  0  0  0  0  0  0  0  0
  1  2  1  0
  2  3  1  0
  3  4  1  0
  4  5  1  0
  5  6  1  0
  6  7  1  0
  7  8  1  0
  8  9  2  0
  7 10  1  0
 10 11  2  3
 10 12  1  0
 12 13  1  0
 13 14  1  0
 14 15  2  0
  6 16  1  0
  2 17  1  0
  8  3  1  0
 14  6  1  0
  1 18  1  0
  1 19  1  0
  1 20  1  0
  2 21  1  0
  3 22  1  0
  4 23  1  0
  4 24  1  0
  5 25  1  0
  5 26  1  0
  7 27  1  0
 11 28  1  0
 11 29  1  0
 12 30  1  0
 12 31  1  0
 13 32  1  0
 13 33  1  0
 16 34  1  0
 16 35  1  0
 16 36  1  0
 17 37  1  0
 17 38  1  0
 17 39  1  0
M  END
$$$$
