
     RDKit          3D

 27 27  0  0  0  0  0  0  0  0999 V2000
    3.1057   -0.0835   -1.0754 C   0  0  0  0  0  0  0  0  0  0  0  0
    1.7083   -0.2102   -1.2183 O   0  0  0  0  0  0  0  0  0  0  0  0
    1.0410    0.0956   -0.0008 C   0  0  0  0  0  0  0  0  0  0  0  0
    0.2898   -1.1653    0.5091 C   0  0  2  0  0  0  0  0  0  0  0  0
    1.0354   -2.3180    0.2041 O   0  0  0  0  0  0  0  0  0  0  0  0
   -1.1209   -1.2595   -0.1130 C   0  0  1  0  0  0  0  0  0  0  0  0
   -1.7561   -2.4616    0.2466 O   0  0  0  0  0  0  0  0  0  0  0  0
   -2.0084   -0.0394    0.2715 C   0  0  0  0  0  0  0  0  0  0  0  0
   -1.1760    1.2238    0.6138 C   0  0  1  0  0  0  0  0  0  0  0  0
    0.0922    1.3017   -0.2581 C   0  0  1  0  0  0  0  0  0  0  0  0
    0.7704    2.5034    0.0051 O   0  0  0  0  0  0  0  0  0  0  0  0
   -1.9654    2.3737    0.4330 O   0  0  0  0  0  0  0  0  0  0  0  0
   -2.8920    0.2436   -0.7847 O   0  0  0  0  0  0  0  0  0  0  0  0
    3.4929   -0.7916   -0.3094 H   0  0  0  0  0  0  0  0  0  0  0  0
    3.5859   -0.3348   -2.0431 H   0  0  0  0  0  0  0  0  0  0  0  0
    3.3861    0.9617   -0.8177 H   0  0  0  0  0  0  0  0  0  0  0  0
    1.7379    0.3890    0.8253 H   0  0  0  0  0  0  0  0  0  0  0  0
    0.1815   -1.0784    1.6176 H   0  0  0  0  0  0  0  0  0  0  0  0
    0.7694   -3.0190    0.8548 H   0  0  0  0  0  0  0  0  0  0  0  0
   -0.9924   -1.2714   -1.2187 H   0  0  0  0  0  0  0  0  0  0  0  0
   -1.8045   -2.4902    1.2381 H   0  0  0  0  0  0  0  0  0  0  0  0
   -2.6031   -0.2826    1.1837 H   0  0  0  0  0  0  0  0  0  0  0  0
   -0.8644    1.1544    1.6844 H   0  0  0  0  0  0  0  0  0  0  0  0
   -0.2396    1.2944   -1.3245 H   0  0  0  0  0  0  0  0  0  0  0  0
    1.3914    2.6538   -0.7547 H   0  0  0  0  0  0  0  0  0  0  0  0
   -1.5858    3.0835    1.0144 H   0  0  0  0  0  0  0  0  0  0  0  0
   -3.5794   -0.4730   -0.7830 H   0  0  0  0  0  0  0  0  0  0  0  0
  1  2  1  0
  2  3  1  0
  3  4  1  0
  4  5  1  0
  4  6  1  0
  6  7  1  0
  6  8  1  0
  8  9  1  0
  9 10  1  0
 10 11  1  0
  9 12  1  0
  8 13  1  0
 10  3  1  0
  1 14  1  0
  1 15  1  0
  1 16  1  0
  3 17  1  0
  4 18  1  1
  5 19  1  0
  6 20  1  6
  7 21  1  0
  8 22  1  0
  9 23  1  1
 10 24  1  6
 11 25  1  0
 12 26  1  0
 13 27  1  0
M  END
$$$$
