
     RDKit          3D

 48 47  0  0  0  0  0  0  0  0999 V2000
    7.7589    0.1991   -2.6429 C   0  0  0  0  0  0  0  0  0  0  0  0
    6.6545    0.0890   -1.7547 O   0  0  0  0  0  0  0  0  0  0  0  0
    6.1056    1.1933   -1.0917 C   0  0  0  0  0  0  0  0  0  0  0  0
    6.6091    2.3386   -1.2364 O   0  0  0  0  0  0  0  0  0  0  0  0
    4.9264    1.0364   -0.2285 C   0  0  0  0  0  0  0  0  0  0  0  0
    4.3546   -0.1540   -0.0173 C   0  0  0  0  0  0  0  0  0  0  0  0
    3.1273   -0.2916    0.8370 C   0  0  0  0  0  0  0  0  0  0  0  0
    1.8879    0.2103    0.0884 C   0  0  0  0  0  0  0  0  0  0  0  0
    0.6542    0.1401    0.9531 C   0  0  0  0  0  0  0  0  0  0  0  0
   -0.1308   -0.9534    1.0924 C   0  0  0  0  0  0  0  0  0  0  0  0
   -1.3699   -0.8612    1.9629 C   0  0  0  0  0  0  0  0  0  0  0  0
   -2.4950   -0.0136    1.3097 C   0  0  0  0  0  0  0  0  0  0  0  0
   -2.9841   -0.6616   -0.0392 C   0  0  2  0  0  0  0  0  0  0  0  0
   -4.0336    0.1055   -0.9209 C   0  0  0  0  0  0  0  0  0  0  0  0
   -3.9140   -0.4121   -2.2297 O   0  0  0  0  0  0  0  0  0  0  0  0
   -3.7220    1.6188   -0.9689 C   0  0  0  0  0  0  0  0  0  0  0  0
   -5.4916   -0.1202   -0.4534 C   0  0  0  0  0  0  0  0  0  0  0  0
   -3.3459   -2.0138    0.1200 O   0  0  0  0  0  0  0  0  0  0  0  0
   -3.6053    0.2357    2.3470 C   0  0  0  0  0  0  0  0  0  0  0  0
    0.1796   -2.2564    0.3925 C   0  0  0  0  0  0  0  0  0  0  0  0
    8.0296   -0.8104   -3.0163 H   0  0  0  0  0  0  0  0  0  0  0  0
    7.4853    0.8394   -3.5085 H   0  0  0  0  0  0  0  0  0  0  0  0
    8.6311    0.6356   -2.1125 H   0  0  0  0  0  0  0  0  0  0  0  0
    4.5077    1.9229    0.2372 H   0  0  0  0  0  0  0  0  0  0  0  0
    4.7747   -1.0516   -0.4568 H   0  0  0  0  0  0  0  0  0  0  0  0
    3.2628    0.2750    1.7840 H   0  0  0  0  0  0  0  0  0  0  0  0
    3.0012   -1.3611    1.0992 H   0  0  0  0  0  0  0  0  0  0  0  0
    1.7449   -0.3534   -0.8572 H   0  0  0  0  0  0  0  0  0  0  0  0
    2.0440    1.2749   -0.1904 H   0  0  0  0  0  0  0  0  0  0  0  0
    0.3754    1.0537    1.4716 H   0  0  0  0  0  0  0  0  0  0  0  0
   -1.7599   -1.8751    2.2003 H   0  0  0  0  0  0  0  0  0  0  0  0
   -1.0712   -0.4127    2.9377 H   0  0  0  0  0  0  0  0  0  0  0  0
   -2.0558    0.9813    1.0778 H   0  0  0  0  0  0  0  0  0  0  0  0
   -2.0719   -0.6761   -0.6746 H   0  0  0  0  0  0  0  0  0  0  0  0
   -4.5685    0.0522   -2.8170 H   0  0  0  0  0  0  0  0  0  0  0  0
   -3.9066    2.1055    0.0100 H   0  0  0  0  0  0  0  0  0  0  0  0
   -2.6636    1.7848   -1.2602 H   0  0  0  0  0  0  0  0  0  0  0  0
   -4.3667    2.1278   -1.7174 H   0  0  0  0  0  0  0  0  0  0  0  0
   -5.6569    0.1687    0.5982 H   0  0  0  0  0  0  0  0  0  0  0  0
   -5.7777   -1.1871   -0.5736 H   0  0  0  0  0  0  0  0  0  0  0  0
   -6.1912    0.4793   -1.0751 H   0  0  0  0  0  0  0  0  0  0  0  0
   -4.0605   -2.0628    0.8034 H   0  0  0  0  0  0  0  0  0  0  0  0
   -4.2020   -0.6778    2.5454 H   0  0  0  0  0  0  0  0  0  0  0  0
   -4.2686    1.0625    2.0286 H   0  0  0  0  0  0  0  0  0  0  0  0
   -3.1628    0.5668    3.3119 H   0  0  0  0  0  0  0  0  0  0  0  0
   -0.5990   -3.0196    0.5987 H   0  0  0  0  0  0  0  0  0  0  0  0
    0.2116   -2.1047   -0.7063 H   0  0  0  0  0  0  0  0  0  0  0  0
    1.1487   -2.6624    0.7424 H   0  0  0  0  0  0  0  0  0  0  0  0
  1  2  1  0
  2  3  1  0
  3  4  2  0
  3  5  1  0
  5  6  2  0
  6  7  1  0
  7  8  1  0
  8  9  1  0
  9 10  2  0
 10 11  1  0
 11 12  1  0
 12 13  1  0
 13 14  1  0
 14 15  1  0
 14 16  1  0
 14 17  1  0
 13 18  1  0
 12 19  1  0
 10 20  1  0
  1 21  1  0
  1 22  1  0
  1 23  1  0
  5 24  1  0
  6 25  1  0
  7 26  1  0
  7 27  1  0
  8 28  1  0
  8 29  1  0
  9 30  1  0
 11 31  1  0
 11 32  1  0
 12 33  1  0
 13 34  1  6
 15 35  1  0
 16 36  1  0
 16 37  1  0
 16 38  1  0
 17 39  1  0
 17 40  1  0
 17 41  1  0
 18 42  1  0
 19 43  1  0
 19 44  1  0
 19 45  1  0
 20 46  1  0
 20 47  1  0
 20 48  1  0
M  END
$$$$
