
     RDKit          3D

110112  0  0  0  0  0  0  0  0999 V2000
  -11.7088   -2.0126    0.2251 C   0  0  0  0  0  0  0  0  0  0  0  0
  -12.5286   -1.3950   -0.9048 C   0  0  0  0  0  0  0  0  0  0  0  0
  -11.7533   -0.3335   -1.7035 C   0  0  0  0  0  0  0  0  0  0  0  0
  -10.5730   -0.9106   -2.5160 C   0  0  0  0  0  0  0  0  0  0  0  0
   -9.2026   -0.7299   -1.8344 C   0  0  0  0  0  0  0  0  0  0  0  0
   -8.7341    0.7458   -1.7826 C   0  0  0  0  0  0  0  0  0  0  0  0
   -8.7523    1.3506   -0.3605 C   0  0  0  0  0  0  0  0  0  0  0  0
   -7.3920    1.2887    0.3550 C   0  0  0  0  0  0  0  0  0  0  0  0
   -6.9519   -0.1502    0.6765 C   0  0  0  0  0  0  0  0  0  0  0  0
   -5.7949   -0.2076    1.6882 C   0  0  0  0  0  0  0  0  0  0  0  0
   -4.4713    0.3754    1.1467 C   0  0  1  0  0  0  0  0  0  0  0  0
   -3.3716    0.3820    2.2332 C   0  0  0  0  0  0  0  0  0  0  0  0
   -3.7249    1.2737    3.4275 C   0  0  0  0  0  0  0  0  0  0  0  0
   -2.4271    1.9377    3.7563 C   0  0  0  0  0  0  0  0  0  0  0  0
   -1.7277    1.9558    2.4096 C   0  0  2  0  0  0  0  0  0  0  0  0
   -2.1473    0.8242    1.6788 O   0  0  0  0  0  0  0  0  0  0  0  0
   -0.1952    1.9696    2.5605 C   0  0  2  0  0  0  0  0  0  0  0  0
    0.5142    2.1848    1.2343 C   0  0  0  0  0  0  0  0  0  0  0  0
    1.8370    1.5001    1.4500 C   0  0  0  0  0  0  0  0  0  0  0  0
    1.5885    0.5783    2.6513 C   0  0  1  0  0  0  0  0  0  0  0  0
    0.2636    0.7550    3.1054 O   0  0  0  0  0  0  0  0  0  0  0  0
    1.8932   -0.9265    2.4122 C   0  0  1  0  0  0  0  0  0  0  0  0
    0.7695   -1.7318    1.7080 C   0  0  0  0  0  0  0  0  0  0  0  0
    0.6454   -1.5501    0.1833 C   0  0  0  0  0  0  0  0  0  0  0  0
    1.7229   -2.3121   -0.6219 C   0  0  0  0  0  0  0  0  0  0  0  0
    2.4959   -1.3862   -1.5747 C   0  0  0  0  0  0  0  0  0  0  0  0
    3.3637   -2.1517   -2.5878 C   0  0  0  0  0  0  0  0  0  0  0  0
    4.4330   -3.0686   -1.9587 C   0  0  0  0  0  0  0  0  0  0  0  0
    5.4295   -2.3642   -1.0180 C   0  0  0  0  0  0  0  0  0  0  0  0
    6.2341   -1.2218   -1.6620 C   0  0  0  0  0  0  0  0  0  0  0  0
    7.1413   -1.7117   -2.8035 C   0  0  0  0  0  0  0  0  0  0  0  0
    8.1067   -0.6272   -3.3109 C   0  0  0  0  0  0  0  0  0  0  0  0
    9.2041   -0.2506   -2.2772 C   0  0  0  0  0  0  0  0  0  0  0  0
    8.9872    1.1671   -1.7007 C   0  0  0  0  0  0  0  0  0  0  0  0
    9.8054    1.3877   -0.4571 C   0  0  0  0  0  0  0  0  0  0  0  0
   11.1304    1.4993   -0.3987 C   0  0  0  0  0  0  0  0  0  0  0  0
   11.5821    1.6702    1.0275 C   0  0  0  0  0  0  0  0  0  0  0  0
   10.3625    1.6638    1.7681 O   0  0  0  0  0  0  0  0  0  0  0  0
    9.3068    1.4836    0.8959 C   0  0  0  0  0  0  0  0  0  0  0  0
    8.0940    1.4549    1.2468 O   0  0  0  0  0  0  0  0  0  0  0  0
   12.3194    2.9919    1.2217 C   0  0  0  0  0  0  0  0  0  0  0  0
   10.4788   -0.3560   -2.8636 O   0  0  0  0  0  0  0  0  0  0  0  0
    3.1228   -1.0980    1.7548 O   0  0  0  0  0  0  0  0  0  0  0  0
   -4.0460   -0.4032    0.0579 O   0  0  0  0  0  0  0  0  0  0  0  0
  -12.3682   -2.6398    0.8579 H   0  0  0  0  0  0  0  0  0  0  0  0
  -11.2554   -1.2253    0.8612 H   0  0  0  0  0  0  0  0  0  0  0  0
  -10.9096   -2.6624   -0.1856 H   0  0  0  0  0  0  0  0  0  0  0  0
  -13.4229   -0.9092   -0.4536 H   0  0  0  0  0  0  0  0  0  0  0  0
  -12.8851   -2.1998   -1.5857 H   0  0  0  0  0  0  0  0  0  0  0  0
  -12.4717    0.1243   -2.4206 H   0  0  0  0  0  0  0  0  0  0  0  0
  -11.4299    0.4896   -1.0317 H   0  0  0  0  0  0  0  0  0  0  0  0
  -10.7392   -1.9921   -2.7179 H   0  0  0  0  0  0  0  0  0  0  0  0
  -10.5411   -0.4130   -3.5109 H   0  0  0  0  0  0  0  0  0  0  0  0
   -8.4603   -1.3082   -2.4271 H   0  0  0  0  0  0  0  0  0  0  0  0
   -9.2134   -1.1865   -0.8266 H   0  0  0  0  0  0  0  0  0  0  0  0
   -9.3765    1.3705   -2.4400 H   0  0  0  0  0  0  0  0  0  0  0  0
   -7.7101    0.8187   -2.2098 H   0  0  0  0  0  0  0  0  0  0  0  0
   -9.0241    2.4269   -0.4510 H   0  0  0  0  0  0  0  0  0  0  0  0
   -9.5353    0.8773    0.2749 H   0  0  0  0  0  0  0  0  0  0  0  0
   -7.4787    1.8635    1.3052 H   0  0  0  0  0  0  0  0  0  0  0  0
   -6.6253    1.7896   -0.2757 H   0  0  0  0  0  0  0  0  0  0  0  0
   -6.6649   -0.6777   -0.2594 H   0  0  0  0  0  0  0  0  0  0  0  0
   -7.8109   -0.6959    1.1213 H   0  0  0  0  0  0  0  0  0  0  0  0
   -6.1093    0.3201    2.6109 H   0  0  0  0  0  0  0  0  0  0  0  0
   -5.6313   -1.2702    1.9692 H   0  0  0  0  0  0  0  0  0  0  0  0
   -4.6372    1.4272    0.8200 H   0  0  0  0  0  0  0  0  0  0  0  0
   -3.2193   -0.6586    2.5969 H   0  0  0  0  0  0  0  0  0  0  0  0
   -4.4694    2.0528    3.1492 H   0  0  0  0  0  0  0  0  0  0  0  0
   -4.1099    0.6828    4.2869 H   0  0  0  0  0  0  0  0  0  0  0  0
   -1.8690    1.3087    4.4875 H   0  0  0  0  0  0  0  0  0  0  0  0
   -2.5755    2.9642    4.1658 H   0  0  0  0  0  0  0  0  0  0  0  0
   -2.0443    2.8698    1.8553 H   0  0  0  0  0  0  0  0  0  0  0  0
    0.0847    2.7980    3.2533 H   0  0  0  0  0  0  0  0  0  0  0  0
   -0.0348    1.7014    0.3942 H   0  0  0  0  0  0  0  0  0  0  0  0
    0.6435    3.2680    1.0163 H   0  0  0  0  0  0  0  0  0  0  0  0
    2.6107    2.2578    1.7133 H   0  0  0  0  0  0  0  0  0  0  0  0
    2.1812    0.9707    0.5395 H   0  0  0  0  0  0  0  0  0  0  0  0
    2.2674    0.9139    3.4707 H   0  0  0  0  0  0  0  0  0  0  0  0
    1.9814   -1.3819    3.4272 H   0  0  0  0  0  0  0  0  0  0  0  0
   -0.2082   -1.4762    2.1697 H   0  0  0  0  0  0  0  0  0  0  0  0
    0.9225   -2.8145    1.9208 H   0  0  0  0  0  0  0  0  0  0  0  0
    0.6067   -0.4776   -0.0809 H   0  0  0  0  0  0  0  0  0  0  0  0
   -0.3476   -1.9564   -0.1164 H   0  0  0  0  0  0  0  0  0  0  0  0
    1.2289   -3.1093   -1.2158 H   0  0  0  0  0  0  0  0  0  0  0  0
    2.4374   -2.8236    0.0553 H   0  0  0  0  0  0  0  0  0  0  0  0
    3.1194   -0.6803   -0.9928 H   0  0  0  0  0  0  0  0  0  0  0  0
    1.7715   -0.7746   -2.1508 H   0  0  0  0  0  0  0  0  0  0  0  0
    2.7007   -2.7773   -3.2251 H   0  0  0  0  0  0  0  0  0  0  0  0
    3.8513   -1.4222   -3.2708 H   0  0  0  0  0  0  0  0  0  0  0  0
    3.9306   -3.8829   -1.3918 H   0  0  0  0  0  0  0  0  0  0  0  0
    4.9907   -3.5793   -2.7727 H   0  0  0  0  0  0  0  0  0  0  0  0
    4.8862   -1.9632   -0.1384 H   0  0  0  0  0  0  0  0  0  0  0  0
    6.1376   -3.1253   -0.6245 H   0  0  0  0  0  0  0  0  0  0  0  0
    6.8545   -0.7727   -0.8557 H   0  0  0  0  0  0  0  0  0  0  0  0
    5.5528   -0.4247   -2.0330 H   0  0  0  0  0  0  0  0  0  0  0  0
    7.7255   -2.5979   -2.4789 H   0  0  0  0  0  0  0  0  0  0  0  0
    6.5049   -2.0252   -3.6584 H   0  0  0  0  0  0  0  0  0  0  0  0
    8.5921   -1.0269   -4.2296 H   0  0  0  0  0  0  0  0  0  0  0  0
    7.5257    0.2665   -3.6312 H   0  0  0  0  0  0  0  0  0  0  0  0
    9.1790   -0.9759   -1.4344 H   0  0  0  0  0  0  0  0  0  0  0  0
    7.9134    1.3131   -1.4490 H   0  0  0  0  0  0  0  0  0  0  0  0
    9.2533    1.9378   -2.4596 H   0  0  0  0  0  0  0  0  0  0  0  0
   11.7850    1.4577   -1.2604 H   0  0  0  0  0  0  0  0  0  0  0  0
   12.2212    0.8134    1.3358 H   0  0  0  0  0  0  0  0  0  0  0  0
   11.7014    3.8450    0.8658 H   0  0  0  0  0  0  0  0  0  0  0  0
   12.5448    3.1386    2.2983 H   0  0  0  0  0  0  0  0  0  0  0  0
   13.2739    2.9769    0.6519 H   0  0  0  0  0  0  0  0  0  0  0  0
   10.5301    0.3110   -3.5966 H   0  0  0  0  0  0  0  0  0  0  0  0
    3.8298   -0.7736    2.3692 H   0  0  0  0  0  0  0  0  0  0  0  0
   -3.4905    0.1779   -0.5191 H   0  0  0  0  0  0  0  0  0  0  0  0
  1  2  1  0
  2  3  1  0
  3  4  1  0
  4  5  1  0
  5  6  1  0
  6  7  1  0
  7  8  1  0
  8  9  1  0
  9 10  1  0
 10 11  1  0
 11 12  1  0
 12 13  1  0
 13 14  1  0
 14 15  1  0
 15 16  1  0
 15 17  1  0
 17 18  1  0
 18 19  1  0
 19 20  1  0
 20 21  1  0
 20 22  1  0
 22 23  1  0
 23 24  1  0
 24 25  1  0
 25 26  1  0
 26 27  1  0
 27 28  1  0
 28 29  1  0
 29 30  1  0
 30 31  1  0
 31 32  1  0
 32 33  1  0
 33 34  1  0
 34 35  1  0
 35 36  2  0
 36 37  1  0
 37 38  1  0
 38 39  1  0
 39 40  2  0
 37 41  1  0
 33 42  1  0
 22 43  1  0
 11 44  1  0
 16 12  1  0
 21 17  1  0
 39 35  1  0
  1 45  1  0
  1 46  1  0
  1 47  1  0
  2 48  1  0
  2 49  1  0
  3 50  1  0
  3 51  1  0
  4 52  1  0
  4 53  1  0
  5 54  1  0
  5 55  1  0
  6 56  1  0
  6 57  1  0
  7 58  1  0
  7 59  1  0
  8 60  1  0
  8 61  1  0
  9 62  1  0
  9 63  1  0
 10 64  1  0
 10 65  1  0
 11 66  1  6
 12 67  1  0
 13 68  1  0
 13 69  1  0
 14 70  1  0
 14 71  1  0
 15 72  1  6
 17 73  1  1
 18 74  1  0
 18 75  1  0
 19 76  1  0
 19 77  1  0
 20 78  1  1
 22 79  1  1
 23 80  1  0
 23 81  1  0
 24 82  1  0
 24 83  1  0
 25 84  1  0
 25 85  1  0
 26 86  1  0
 26 87  1  0
 27 88  1  0
 27 89  1  0
 28 90  1  0
 28 91  1  0
 29 92  1  0
 29 93  1  0
 30 94  1  0
 30 95  1  0
 31 96  1  0
 31 97  1  0
 32 98  1  0
 32 99  1  0
 33100  1  0
 34101  1  0
 34102  1  0
 36103  1  0
 37104  1  0
 41105  1  0
 41106  1  0
 41107  1  0
 42108  1  0
 43109  1  0
 44110  1  0
M  END
$$$$
