
     RDKit          3D

 93 97  0  0  0  0  0  0  0  0999 V2000
   -1.3746   -5.1671    1.3781 C   0  0  0  0  0  0  0  0  0  0  0  0
   -0.1245   -4.4902    1.3422 O   0  0  0  0  0  0  0  0  0  0  0  0
    0.0694   -3.0969    1.3771 C   0  0  0  0  0  0  0  0  0  0  0  0
    1.3269   -2.6121    1.2176 C   0  0  0  0  0  0  0  0  0  0  0  0
    2.5093   -3.5610    0.9833 C   0  0  0  0  0  0  0  0  0  0  0  0
    2.6864   -4.5945    2.1087 C   0  0  0  0  0  0  0  0  0  0  0  0
    2.4280   -4.2267   -0.3957 C   0  0  0  0  0  0  0  0  0  0  0  0
    1.5635   -1.0948    1.2343 C   0  0  0  0  0  0  0  0  0  0  0  0
    0.3827   -0.4038    0.4908 C   0  0  0  0  0  0  0  0  0  0  0  0
   -1.0244   -0.7103    1.1177 C   0  0  0  0  0  0  0  0  0  0  0  0
   -1.0800   -2.1633    1.5524 C   0  0  0  0  0  0  0  0  0  0  0  0
   -2.1623   -2.5962    2.0300 O   0  0  0  0  0  0  0  0  0  0  0  0
   -1.3969    0.1893    2.3556 C   0  0  0  0  0  0  0  0  0  0  0  0
   -2.1375    1.4853    1.9997 C   0  0  0  0  0  0  0  0  0  0  0  0
   -3.2649    1.2264    1.0508 C   0  0  0  0  0  0  0  0  0  0  0  0
   -3.1419    0.2146    0.0990 C   0  0  0  0  0  0  0  0  0  0  0  0
   -1.9963   -0.5877    0.0682 O   0  0  0  0  0  0  0  0  0  0  0  0
   -4.1560    0.0088   -0.8501 C   0  0  0  0  0  0  0  0  0  0  0  0
   -4.0313   -1.0276   -1.7838 O   0  0  0  0  0  0  0  0  0  0  0  0
   -4.0312   -2.3998   -1.4020 C   0  0  0  0  0  0  0  0  0  0  0  0
   -5.2914    0.8553   -0.8793 C   0  0  0  0  0  0  0  0  0  0  0  0
   -5.3986    1.8957    0.0777 C   0  0  0  0  0  0  0  0  0  0  0  0
   -4.3780    2.0701    1.0311 C   0  0  0  0  0  0  0  0  0  0  0  0
   -6.5238    2.7371    0.0608 O   0  0  0  0  0  0  0  0  0  0  0  0
   -6.7546    3.8125    0.9663 C   0  0  0  0  0  0  0  0  0  0  0  0
   -6.3910    0.6154   -1.9157 C   0  0  0  0  0  0  0  0  0  0  0  0
   -7.7154    0.2056   -1.2581 C   0  0  0  0  0  0  0  0  0  0  0  0
   -6.5724    1.8133   -2.8575 C   0  0  0  0  0  0  0  0  0  0  0  0
    0.6648    1.0993    0.3084 C   0  0  0  0  0  0  0  0  0  0  0  0
    1.9936    1.3305   -0.3501 C   0  0  0  0  0  0  0  0  0  0  0  0
    3.0368    0.4195   -0.1510 C   0  0  0  0  0  0  0  0  0  0  0  0
    2.7910   -0.7766    0.5412 O   0  0  0  0  0  0  0  0  0  0  0  0
    4.3138    0.6786   -0.6919 C   0  0  0  0  0  0  0  0  0  0  0  0
    5.3812   -0.2007   -0.4617 O   0  0  0  0  0  0  0  0  0  0  0  0
    5.7709   -0.6406    0.8345 C   0  0  0  0  0  0  0  0  0  0  0  0
    4.5272    1.8353   -1.4885 C   0  0  0  0  0  0  0  0  0  0  0  0
    3.4608    2.7479   -1.6809 C   0  0  0  0  0  0  0  0  0  0  0  0
    2.2109    2.4915   -1.0925 C   0  0  0  0  0  0  0  0  0  0  0  0
    3.6708    3.9043   -2.4539 O   0  0  0  0  0  0  0  0  0  0  0  0
    2.6780    4.8837   -2.7429 C   0  0  0  0  0  0  0  0  0  0  0  0
    5.8972    2.1336   -2.1051 C   0  0  0  0  0  0  0  0  0  0  0  0
    6.3286    1.0530   -3.1048 C   0  0  0  0  0  0  0  0  0  0  0  0
    6.9688    2.3769   -1.0346 C   0  0  0  0  0  0  0  0  0  0  0  0
    1.5861   -0.6270    2.5787 O   0  0  0  0  0  0  0  0  0  0  0  0
    2.8450   -0.7854    3.1981 C   0  0  0  0  0  0  0  0  0  0  0  0
   -1.8382   -5.0595    2.3803 H   0  0  0  0  0  0  0  0  0  0  0  0
   -2.0480   -4.7785    0.5855 H   0  0  0  0  0  0  0  0  0  0  0  0
   -1.2018   -6.2465    1.1932 H   0  0  0  0  0  0  0  0  0  0  0  0
    3.4519   -2.9853    0.9808 H   0  0  0  0  0  0  0  0  0  0  0  0
    3.7192   -5.0027    2.0814 H   0  0  0  0  0  0  0  0  0  0  0  0
    1.9922   -5.4515    2.0036 H   0  0  0  0  0  0  0  0  0  0  0  0
    2.5276   -4.1241    3.1021 H   0  0  0  0  0  0  0  0  0  0  0  0
    1.5484   -4.8978   -0.4753 H   0  0  0  0  0  0  0  0  0  0  0  0
    2.3566   -3.4490   -1.1858 H   0  0  0  0  0  0  0  0  0  0  0  0
    3.3435   -4.8269   -0.5832 H   0  0  0  0  0  0  0  0  0  0  0  0
    0.3699   -0.8373   -0.5376 H   0  0  0  0  0  0  0  0  0  0  0  0
   -2.0685   -0.3620    3.0493 H   0  0  0  0  0  0  0  0  0  0  0  0
   -0.5089    0.4476    2.9605 H   0  0  0  0  0  0  0  0  0  0  0  0
   -1.4590    2.2351    1.5510 H   0  0  0  0  0  0  0  0  0  0  0  0
   -2.5299    1.9306    2.9415 H   0  0  0  0  0  0  0  0  0  0  0  0
   -4.9802   -2.6458   -0.8798 H   0  0  0  0  0  0  0  0  0  0  0  0
   -3.9519   -3.0300   -2.3112 H   0  0  0  0  0  0  0  0  0  0  0  0
   -3.1741   -2.6310   -0.7376 H   0  0  0  0  0  0  0  0  0  0  0  0
   -4.4376    2.8694    1.7586 H   0  0  0  0  0  0  0  0  0  0  0  0
   -6.8015    3.4338    2.0103 H   0  0  0  0  0  0  0  0  0  0  0  0
   -5.9505    4.5727    0.8683 H   0  0  0  0  0  0  0  0  0  0  0  0
   -7.7245    4.2911    0.7157 H   0  0  0  0  0  0  0  0  0  0  0  0
   -6.1094   -0.2329   -2.5746 H   0  0  0  0  0  0  0  0  0  0  0  0
   -8.1578    1.0318   -0.6672 H   0  0  0  0  0  0  0  0  0  0  0  0
   -8.4481   -0.0875   -2.0401 H   0  0  0  0  0  0  0  0  0  0  0  0
   -7.5528   -0.6672   -0.5906 H   0  0  0  0  0  0  0  0  0  0  0  0
   -5.5924    2.1145   -3.2859 H   0  0  0  0  0  0  0  0  0  0  0  0
   -7.0235    2.6836   -2.3435 H   0  0  0  0  0  0  0  0  0  0  0  0
   -7.2412    1.5318   -3.6979 H   0  0  0  0  0  0  0  0  0  0  0  0
    0.7013    1.6125    1.2917 H   0  0  0  0  0  0  0  0  0  0  0  0
   -0.1447    1.5439   -0.3117 H   0  0  0  0  0  0  0  0  0  0  0  0
    6.7827   -1.0894    0.7702 H   0  0  0  0  0  0  0  0  0  0  0  0
    5.8077    0.2206    1.5341 H   0  0  0  0  0  0  0  0  0  0  0  0
    5.0795   -1.4116    1.2157 H   0  0  0  0  0  0  0  0  0  0  0  0
    1.3933    3.1909   -1.2133 H   0  0  0  0  0  0  0  0  0  0  0  0
    1.8288    4.4227   -3.2893 H   0  0  0  0  0  0  0  0  0  0  0  0
    2.3210    5.3542   -1.8033 H   0  0  0  0  0  0  0  0  0  0  0  0
    3.1238    5.6718   -3.3846 H   0  0  0  0  0  0  0  0  0  0  0  0
    5.8512    3.0747   -2.6924 H   0  0  0  0  0  0  0  0  0  0  0  0
    6.5518    0.0860   -2.6055 H   0  0  0  0  0  0  0  0  0  0  0  0
    5.5255    0.8937   -3.8553 H   0  0  0  0  0  0  0  0  0  0  0  0
    7.2442    1.3850   -3.6423 H   0  0  0  0  0  0  0  0  0  0  0  0
    7.8814    2.8001   -1.5057 H   0  0  0  0  0  0  0  0  0  0  0  0
    6.5989    3.1035   -0.2804 H   0  0  0  0  0  0  0  0  0  0  0  0
    7.2587    1.4392   -0.5196 H   0  0  0  0  0  0  0  0  0  0  0  0
    2.7271   -0.5992    4.2838 H   0  0  0  0  0  0  0  0  0  0  0  0
    3.2464   -1.8117    3.0829 H   0  0  0  0  0  0  0  0  0  0  0  0
    3.5672   -0.0342    2.8131 H   0  0  0  0  0  0  0  0  0  0  0  0
  1  2  1  0
  2  3  1  0
  3  4  2  0
  4  5  1  0
  5  6  1  0
  5  7  1  0
  4  8  1  0
  8  9  1  0
  9 10  1  0
 10 11  1  0
 11 12  2  0
 10 13  1  0
 13 14  1  0
 14 15  1  0
 15 16  2  0
 16 17  1  0
 16 18  1  0
 18 19  1  0
 19 20  1  0
 18 21  2  0
 21 22  1  0
 22 23  2  0
 22 24  1  0
 24 25  1  0
 21 26  1  0
 26 27  1  0
 26 28  1  0
  9 29  1  0
 29 30  1  0
 30 31  2  0
 31 32  1  0
 31 33  1  0
 33 34  1  0
 34 35  1  0
 33 36  2  0
 36 37  1  0
 37 38  2  0
 37 39  1  0
 39 40  1  0
 36 41  1  0
 41 42  1  0
 41 43  1  0
  8 44  1  0
 44 45  1  0
 11  3  1  0
 23 15  1  0
 38 30  1  0
 32  8  1  0
 17 10  1  0
  1 46  1  0
  1 47  1  0
  1 48  1  0
  5 49  1  0
  6 50  1  0
  6 51  1  0
  6 52  1  0
  7 53  1  0
  7 54  1  0
  7 55  1  0
  9 56  1  0
 13 57  1  0
 13 58  1  0
 14 59  1  0
 14 60  1  0
 20 61  1  0
 20 62  1  0
 20 63  1  0
 23 64  1  0
 25 65  1  0
 25 66  1  0
 25 67  1  0
 26 68  1  0
 27 69  1  0
 27 70  1  0
 27 71  1  0
 28 72  1  0
 28 73  1  0
 28 74  1  0
 29 75  1  0
 29 76  1  0
 35 77  1  0
 35 78  1  0
 35 79  1  0
 38 80  1  0
 40 81  1  0
 40 82  1  0
 40 83  1  0
 41 84  1  0
 42 85  1  0
 42 86  1  0
 42 87  1  0
 43 88  1  0
 43 89  1  0
 43 90  1  0
 45 91  1  0
 45 92  1  0
 45 93  1  0
M  END
$$$$
