
     RDKit          3D

 64 66  0  0  0  0  0  0  0  0999 V2000
    6.0814   -2.1605    0.8514 C   0  0  0  0  0  0  0  0  0  0  0  0
    5.4445   -1.0940    0.1561 O   0  0  0  0  0  0  0  0  0  0  0  0
    4.1895   -0.5544    0.4810 C   0  0  0  0  0  0  0  0  0  0  0  0
    3.4704   -1.0144    1.5966 C   0  0  0  0  0  0  0  0  0  0  0  0
    2.2002   -0.5206    1.8965 C   0  0  0  0  0  0  0  0  0  0  0  0
    1.5581   -1.0476    3.0181 O   0  0  0  0  0  0  0  0  0  0  0  0
    1.6069    0.4589    1.0651 C   0  0  0  0  0  0  0  0  0  0  0  0
    2.3643    0.9848   -0.0097 C   0  0  0  0  0  0  0  0  0  0  0  0
    3.6310    0.4669   -0.3221 C   0  0  0  0  0  0  0  0  0  0  0  0
    4.2837    1.0117   -1.4451 O   0  0  0  0  0  0  0  0  0  0  0  0
    5.6788    0.9250   -1.7281 C   0  0  0  0  0  0  0  0  0  0  0  0
    1.9083    2.0686   -0.7620 O   0  0  0  0  0  0  0  0  0  0  0  0
    0.2036    0.9039    1.2946 C   0  0  0  0  0  0  0  0  0  0  0  0
   -0.1361    1.3021    2.4406 O   0  0  0  0  0  0  0  0  0  0  0  0
   -0.8509    0.8237    0.1960 C   0  0  1  0  0  0  0  0  0  0  0  0
   -1.7910   -0.4160    0.4164 C   0  0  2  0  0  0  0  0  0  0  0  0
   -1.0097   -1.7463    0.2096 C   0  0  0  0  0  0  0  0  0  0  0  0
   -1.8109   -3.0050    0.4679 C   0  0  0  0  0  0  0  0  0  0  0  0
   -2.2043   -3.4621    1.6761 C   0  0  0  0  0  0  0  0  0  0  0  0
   -2.9862   -4.7494    1.7329 C   0  0  0  0  0  0  0  0  0  0  0  0
   -1.8405   -2.7713    2.9674 C   0  0  0  0  0  0  0  0  0  0  0  0
   -3.0580   -0.2675   -0.4429 C   0  0  0  0  0  0  0  0  0  0  0  0
   -3.7212    0.9023   -0.3825 C   0  0  0  0  0  0  0  0  0  0  0  0
   -3.1439    2.0459    0.3936 C   0  0  0  0  0  0  0  0  0  0  0  0
   -1.6385    2.1933    0.0896 C   0  0  2  0  0  0  0  0  0  0  0  0
   -1.4288    2.8965   -1.2503 C   0  0  0  0  0  0  0  0  0  0  0  0
   -1.0576    4.2556   -1.2729 C   0  0  0  0  0  0  0  0  0  0  0  0
   -0.8632    4.9221   -2.4867 C   0  0  0  0  0  0  0  0  0  0  0  0
   -1.0518    4.2470   -3.6944 C   0  0  0  0  0  0  0  0  0  0  0  0
   -1.4369    2.9043   -3.6893 C   0  0  0  0  0  0  0  0  0  0  0  0
   -1.6309    2.2315   -2.4775 C   0  0  0  0  0  0  0  0  0  0  0  0
   -3.5848   -1.3502   -1.3555 C   0  0  0  0  0  0  0  0  0  0  0  0
    5.4436   -3.0696    0.8205 H   0  0  0  0  0  0  0  0  0  0  0  0
    7.0471   -2.3910    0.3564 H   0  0  0  0  0  0  0  0  0  0  0  0
    6.2821   -1.8651    1.9020 H   0  0  0  0  0  0  0  0  0  0  0  0
    3.8834   -1.7777    2.2415 H   0  0  0  0  0  0  0  0  0  0  0  0
    0.6514   -0.7453    3.3439 H   0  0  0  0  0  0  0  0  0  0  0  0
    5.9118    1.6000   -2.5774 H   0  0  0  0  0  0  0  0  0  0  0  0
    6.2713    1.2552   -0.8448 H   0  0  0  0  0  0  0  0  0  0  0  0
    5.9522   -0.1086   -2.0353 H   0  0  0  0  0  0  0  0  0  0  0  0
    1.1449    2.6565   -0.4604 H   0  0  0  0  0  0  0  0  0  0  0  0
   -0.3184    0.6461   -0.7636 H   0  0  0  0  0  0  0  0  0  0  0  0
   -2.1287   -0.3847    1.4716 H   0  0  0  0  0  0  0  0  0  0  0  0
   -0.6394   -1.7800   -0.8369 H   0  0  0  0  0  0  0  0  0  0  0  0
   -0.1108   -1.7722    0.8551 H   0  0  0  0  0  0  0  0  0  0  0  0
   -2.0374   -3.6124   -0.4038 H   0  0  0  0  0  0  0  0  0  0  0  0
   -2.3291   -5.5952    1.4468 H   0  0  0  0  0  0  0  0  0  0  0  0
   -3.3849   -4.9398    2.7493 H   0  0  0  0  0  0  0  0  0  0  0  0
   -3.8470   -4.7039    1.0337 H   0  0  0  0  0  0  0  0  0  0  0  0
   -2.4534   -1.8580    3.1036 H   0  0  0  0  0  0  0  0  0  0  0  0
   -0.7641   -2.5218    2.9836 H   0  0  0  0  0  0  0  0  0  0  0  0
   -2.0336   -3.4327    3.8382 H   0  0  0  0  0  0  0  0  0  0  0  0
   -4.6176    1.0728   -0.9717 H   0  0  0  0  0  0  0  0  0  0  0  0
   -3.2835    1.8463    1.4785 H   0  0  0  0  0  0  0  0  0  0  0  0
   -3.6895    2.9835    0.1494 H   0  0  0  0  0  0  0  0  0  0  0  0
   -1.2624    2.8845    0.8778 H   0  0  0  0  0  0  0  0  0  0  0  0
   -0.9066    4.8022   -0.3507 H   0  0  0  0  0  0  0  0  0  0  0  0
   -0.5653    5.9643   -2.4903 H   0  0  0  0  0  0  0  0  0  0  0  0
   -0.9002    4.7658   -4.6338 H   0  0  0  0  0  0  0  0  0  0  0  0
   -1.5858    2.3834   -4.6274 H   0  0  0  0  0  0  0  0  0  0  0  0
   -1.9249    1.1915   -2.5055 H   0  0  0  0  0  0  0  0  0  0  0  0
   -4.4030   -0.9804   -2.0090 H   0  0  0  0  0  0  0  0  0  0  0  0
   -2.7776   -1.7173   -2.0202 H   0  0  0  0  0  0  0  0  0  0  0  0
   -3.9999   -2.1813   -0.7516 H   0  0  0  0  0  0  0  0  0  0  0  0
  1  2  1  0
  2  3  1  0
  3  4  2  0
  4  5  1  0
  5  6  1  0
  5  7  2  0
  7  8  1  0
  8  9  2  0
  9 10  1  0
 10 11  1  0
  8 12  1  0
  7 13  1  0
 13 14  2  0
 13 15  1  0
 15 16  1  0
 16 17  1  0
 17 18  1  0
 18 19  2  3
 19 20  1  0
 19 21  1  0
 16 22  1  0
 22 23  2  0
 23 24  1  0
 24 25  1  0
 25 26  1  0
 26 27  2  0
 27 28  1  0
 28 29  2  0
 29 30  1  0
 30 31  2  0
 22 32  1  0
  9  3  1  0
 25 15  1  0
 31 26  1  0
  1 33  1  0
  1 34  1  0
  1 35  1  0
  4 36  1  0
  6 37  1  0
 11 38  1  0
 11 39  1  0
 11 40  1  0
 12 41  1  0
 15 42  1  6
 16 43  1  1
 17 44  1  0
 17 45  1  0
 18 46  1  0
 20 47  1  0
 20 48  1  0
 20 49  1  0
 21 50  1  0
 21 51  1  0
 21 52  1  0
 23 53  1  0
 24 54  1  0
 24 55  1  0
 25 56  1  1
 27 57  1  0
 28 58  1  0
 29 59  1  0
 30 60  1  0
 31 61  1  0
 32 62  1  0
 32 63  1  0
 32 64  1  0
M  END
$$$$
