
     RDKit          3D

 87 90  0  0  0  0  0  0  0  0999 V2000
   -3.5927    4.0881   -2.3408 C   0  0  0  0  0  0  0  0  0  0  0  0
   -4.4149    3.1007   -1.7261 O   0  0  0  0  0  0  0  0  0  0  0  0
   -3.9606    1.8464   -1.2888 C   0  0  0  0  0  0  0  0  0  0  0  0
   -2.6227    1.4354   -1.4447 C   0  0  0  0  0  0  0  0  0  0  0  0
   -2.2021    0.1696   -0.9909 C   0  0  0  0  0  0  0  0  0  0  0  0
   -0.8061   -0.3106   -1.1446 C   0  0  0  0  0  0  0  0  0  0  0  0
    0.2525    0.5058   -1.2661 C   0  0  0  0  0  0  0  0  0  0  0  0
    1.6454    0.0207   -1.4194 C   0  0  0  0  0  0  0  0  0  0  0  0
    2.5818    0.8557   -2.0440 C   0  0  0  0  0  0  0  0  0  0  0  0
    3.9108    0.4461   -2.2119 C   0  0  0  0  0  0  0  0  0  0  0  0
    4.8222    1.2954   -2.8397 O   0  0  0  0  0  0  0  0  0  0  0  0
    4.3243   -0.8178   -1.7477 C   0  0  0  0  0  0  0  0  0  0  0  0
    3.3984   -1.6424   -1.0778 C   0  0  0  0  0  0  0  0  0  0  0  0
    2.0691   -1.2247   -0.9222 C   0  0  0  0  0  0  0  0  0  0  0  0
    3.8015   -2.8741   -0.5612 O   0  0  0  0  0  0  0  0  0  0  0  0
    5.7608   -1.2532   -1.9127 C   0  0  0  0  0  0  0  0  0  0  0  0
    6.5852   -0.7559   -0.7497 C   0  0  0  0  0  0  0  0  0  0  0  0
    7.7050   -0.0048   -0.8602 C   0  0  0  0  0  0  0  0  0  0  0  0
    8.4500    0.3966    0.3928 C   0  0  0  0  0  0  0  0  0  0  0  0
    9.4261   -0.7076    0.8133 C   0  0  0  0  0  0  0  0  0  0  0  0
   10.2575   -0.2711    1.9933 C   0  0  0  0  0  0  0  0  0  0  0  0
   11.4172    0.4165    1.8964 C   0  0  0  0  0  0  0  0  0  0  0  0
   12.0261    0.7789    0.5606 C   0  0  0  0  0  0  0  0  0  0  0  0
   12.1278    0.8086    3.1660 C   0  0  0  0  0  0  0  0  0  0  0  0
    8.2688    0.4055   -2.1992 C   0  0  0  0  0  0  0  0  0  0  0  0
   -3.1412   -0.6879   -0.3996 C   0  0  0  0  0  0  0  0  0  0  0  0
   -4.4710   -0.2847   -0.2241 C   0  0  0  0  0  0  0  0  0  0  0  0
   -4.8810    0.9807   -0.6865 C   0  0  0  0  0  0  0  0  0  0  0  0
   -6.2130    1.3916   -0.5353 O   0  0  0  0  0  0  0  0  0  0  0  0
   -7.2662    0.4893   -0.1787 C   0  0  2  0  0  0  0  0  0  0  0  0
   -7.6869   -0.2190   -1.4899 C   0  0  0  0  0  0  0  0  0  0  0  0
   -8.4273    1.3456    0.3767 C   0  0  0  0  0  0  0  0  0  0  0  0
   -9.5278    0.5402    1.0944 C   0  0  1  0  0  0  0  0  0  0  0  0
  -10.3029   -0.1898    0.1803 O   0  0  0  0  0  0  0  0  0  0  0  0
   -8.9362   -0.3760    2.1943 C   0  0  2  0  0  0  0  0  0  0  0  0
   -7.7750   -1.3215    1.7242 C   0  0  0  0  0  0  0  0  0  0  0  0
   -6.7115   -0.4583    0.9378 C   0  0  1  0  0  0  0  0  0  0  0  0
   -5.4593   -1.2216    0.4317 C   0  0  0  0  0  0  0  0  0  0  0  0
   -7.1066   -1.8982    3.0030 C   0  0  0  0  0  0  0  0  0  0  0  0
   -8.3082   -2.5383    0.9201 C   0  0  0  0  0  0  0  0  0  0  0  0
   -9.9518   -1.0768    2.8743 O   0  0  0  0  0  0  0  0  0  0  0  0
   -2.7738    4.3860   -1.6519 H   0  0  0  0  0  0  0  0  0  0  0  0
   -3.1710    3.6966   -3.2908 H   0  0  0  0  0  0  0  0  0  0  0  0
   -4.2089    4.9818   -2.5682 H   0  0  0  0  0  0  0  0  0  0  0  0
   -1.9240    2.0877   -1.9454 H   0  0  0  0  0  0  0  0  0  0  0  0
   -0.6547   -1.3820   -1.1368 H   0  0  0  0  0  0  0  0  0  0  0  0
    0.1073    1.5772   -1.2765 H   0  0  0  0  0  0  0  0  0  0  0  0
    2.2769    1.8276   -2.4135 H   0  0  0  0  0  0  0  0  0  0  0  0
    4.5511    2.2106   -3.1803 H   0  0  0  0  0  0  0  0  0  0  0  0
    1.3847   -1.8665   -0.3849 H   0  0  0  0  0  0  0  0  0  0  0  0
    3.1561   -3.4827   -0.0715 H   0  0  0  0  0  0  0  0  0  0  0  0
    5.8310   -2.3611   -1.9422 H   0  0  0  0  0  0  0  0  0  0  0  0
    6.1412   -0.9042   -2.8939 H   0  0  0  0  0  0  0  0  0  0  0  0
    6.2512   -1.0524    0.2418 H   0  0  0  0  0  0  0  0  0  0  0  0
    8.9989    1.3452    0.2126 H   0  0  0  0  0  0  0  0  0  0  0  0
    7.7320    0.5989    1.2191 H   0  0  0  0  0  0  0  0  0  0  0  0
    8.8428   -1.6064    1.1114 H   0  0  0  0  0  0  0  0  0  0  0  0
   10.0734   -1.0066   -0.0391 H   0  0  0  0  0  0  0  0  0  0  0  0
    9.8763   -0.5226    2.9809 H   0  0  0  0  0  0  0  0  0  0  0  0
   12.9644    1.3587    0.6857 H   0  0  0  0  0  0  0  0  0  0  0  0
   11.3230    1.4008   -0.0294 H   0  0  0  0  0  0  0  0  0  0  0  0
   12.2720   -0.1431   -0.0073 H   0  0  0  0  0  0  0  0  0  0  0  0
   12.3917   -0.1020    3.7449 H   0  0  0  0  0  0  0  0  0  0  0  0
   11.4661    1.4518    3.7845 H   0  0  0  0  0  0  0  0  0  0  0  0
   13.0632    1.3692    2.9587 H   0  0  0  0  0  0  0  0  0  0  0  0
    7.5461    1.0561   -2.7334 H   0  0  0  0  0  0  0  0  0  0  0  0
    9.2165    0.9714   -2.0800 H   0  0  0  0  0  0  0  0  0  0  0  0
    8.4896   -0.4951   -2.8100 H   0  0  0  0  0  0  0  0  0  0  0  0
   -2.8337   -1.6694   -0.0562 H   0  0  0  0  0  0  0  0  0  0  0  0
   -8.5801   -0.8501   -1.3931 H   0  0  0  0  0  0  0  0  0  0  0  0
   -6.8639   -0.8359   -1.9023 H   0  0  0  0  0  0  0  0  0  0  0  0
   -7.9251    0.5468   -2.2586 H   0  0  0  0  0  0  0  0  0  0  0  0
   -8.8812    1.9506   -0.4390 H   0  0  0  0  0  0  0  0  0  0  0  0
   -8.0090    2.0744    1.1069 H   0  0  0  0  0  0  0  0  0  0  0  0
  -10.1931    1.2728    1.6102 H   0  0  0  0  0  0  0  0  0  0  0  0
  -10.8607    0.4652   -0.3150 H   0  0  0  0  0  0  0  0  0  0  0  0
   -8.4963    0.3223    2.9432 H   0  0  0  0  0  0  0  0  0  0  0  0
   -6.3069    0.2446    1.7047 H   0  0  0  0  0  0  0  0  0  0  0  0
   -5.7319   -2.0065   -0.3008 H   0  0  0  0  0  0  0  0  0  0  0  0
   -4.9508   -1.7157    1.2851 H   0  0  0  0  0  0  0  0  0  0  0  0
   -6.3568   -2.6768    2.7534 H   0  0  0  0  0  0  0  0  0  0  0  0
   -6.6037   -1.1014    3.5920 H   0  0  0  0  0  0  0  0  0  0  0  0
   -7.8594   -2.3810    3.6627 H   0  0  0  0  0  0  0  0  0  0  0  0
   -9.0102   -2.2625    0.1216 H   0  0  0  0  0  0  0  0  0  0  0  0
   -7.4844   -3.1334    0.4815 H   0  0  0  0  0  0  0  0  0  0  0  0
   -8.8675   -3.2288    1.5871 H   0  0  0  0  0  0  0  0  0  0  0  0
  -10.4745   -1.5933    2.2087 H   0  0  0  0  0  0  0  0  0  0  0  0
  1  2  1  0
  2  3  1  0
  3  4  2  0
  4  5  1  0
  5  6  1  0
  6  7  2  0
  7  8  1  0
  8  9  2  0
  9 10  1  0
 10 11  1  0
 10 12  2  0
 12 13  1  0
 13 14  2  0
 13 15  1  0
 12 16  1  0
 16 17  1  0
 17 18  2  0
 18 19  1  0
 19 20  1  0
 20 21  1  0
 21 22  2  3
 22 23  1  0
 22 24  1  0
 18 25  1  0
  5 26  2  0
 26 27  1  0
 27 28  2  0
 28 29  1  0
 29 30  1  0
 30 31  1  6
 30 32  1  0
 32 33  1  0
 33 34  1  0
 33 35  1  0
 35 36  1  0
 36 37  1  0
 37 38  1  0
 36 39  1  0
 36 40  1  0
 35 41  1  0
 28  3  1  0
 37 30  1  0
 14  8  1  0
 38 27  1  0
  1 42  1  0
  1 43  1  0
  1 44  1  0
  4 45  1  0
  6 46  1  0
  7 47  1  0
  9 48  1  0
 11 49  1  0
 14 50  1  0
 15 51  1  0
 16 52  1  0
 16 53  1  0
 17 54  1  0
 19 55  1  0
 19 56  1  0
 20 57  1  0
 20 58  1  0
 21 59  1  0
 23 60  1  0
 23 61  1  0
 23 62  1  0
 24 63  1  0
 24 64  1  0
 24 65  1  0
 25 66  1  0
 25 67  1  0
 25 68  1  0
 26 69  1  0
 31 70  1  0
 31 71  1  0
 31 72  1  0
 32 73  1  0
 32 74  1  0
 33 75  1  1
 34 76  1  0
 35 77  1  1
 37 78  1  1
 38 79  1  0
 38 80  1  0
 39 81  1  0
 39 82  1  0
 39 83  1  0
 40 84  1  0
 40 85  1  0
 40 86  1  0
 41 87  1  0
M  END
$$$$
