
     RDKit          3D

 84 87  0  0  0  0  0  0  0  0999 V2000
    7.5188   -0.7114   -1.2778 C   0  0  0  0  0  0  0  0  0  0  0  0
    7.1632   -0.3397    0.1412 C   0  0  0  0  0  0  0  0  0  0  0  0
    6.3617    0.7103    0.4327 C   0  0  0  0  0  0  0  0  0  0  0  0
    5.7146    1.6211   -0.5837 C   0  0  0  0  0  0  0  0  0  0  0  0
    4.2080    1.5211   -0.4881 C   0  0  0  0  0  0  0  0  0  0  0  0
    3.4873    2.1832    0.5382 C   0  0  0  0  0  0  0  0  0  0  0  0
    4.1154    2.9632    1.5130 O   0  0  0  0  0  0  0  0  0  0  0  0
    2.0955    2.0579    0.6074 C   0  0  0  0  0  0  0  0  0  0  0  0
    1.3904    1.2856   -0.3311 C   0  0  0  0  0  0  0  0  0  0  0  0
    2.1089    0.6026   -1.3195 C   0  0  0  0  0  0  0  0  0  0  0  0
    3.5019    0.7129   -1.4042 C   0  0  0  0  0  0  0  0  0  0  0  0
    4.1837    0.0175   -2.4029 O   0  0  0  0  0  0  0  0  0  0  0  0
   -0.0863    1.1404   -0.2959 C   0  0  0  0  0  0  0  0  0  0  0  0
   -0.9057    2.0402    0.2708 C   0  0  0  0  0  0  0  0  0  0  0  0
   -2.3845    1.9267    0.2470 C   0  0  0  0  0  0  0  0  0  0  0  0
   -3.1493    3.0959    0.3827 C   0  0  0  0  0  0  0  0  0  0  0  0
   -4.5488    3.0425    0.3497 C   0  0  0  0  0  0  0  0  0  0  0  0
   -5.3021    4.2093    0.4676 O   0  0  0  0  0  0  0  0  0  0  0  0
   -5.1974    1.8135    0.1935 C   0  0  0  0  0  0  0  0  0  0  0  0
   -4.4465    0.6255    0.1114 C   0  0  0  0  0  0  0  0  0  0  0  0
   -3.0450    0.6881    0.1254 C   0  0  0  0  0  0  0  0  0  0  0  0
   -5.1375   -0.7085   -0.0334 C   0  0  0  0  0  0  0  0  0  0  0  0
   -6.6266   -0.6351    0.3978 C   0  0  1  0  0  0  0  0  0  0  0  0
   -7.3354    0.6070   -0.2413 C   0  0  1  0  0  0  0  0  0  0  0  0
   -6.5971    1.7748    0.1415 O   0  0  0  0  0  0  0  0  0  0  0  0
   -7.3456    0.5804   -1.7892 C   0  0  0  0  0  0  0  0  0  0  0  0
   -8.7894    0.7810    0.2985 C   0  0  0  0  0  0  0  0  0  0  0  0
   -9.3481   -0.4347    1.0686 C   0  0  2  0  0  0  0  0  0  0  0  0
   -8.9761   -1.7838    0.4079 C   0  0  2  0  0  0  0  0  0  0  0  0
   -7.4148   -2.0084    0.3157 C   0  0  0  0  0  0  0  0  0  0  0  0
   -6.9901   -2.8807    1.5310 C   0  0  0  0  0  0  0  0  0  0  0  0
   -7.0524   -2.8291   -0.9516 C   0  0  0  0  0  0  0  0  0  0  0  0
   -9.6362   -1.9883   -0.8248 O   0  0  0  0  0  0  0  0  0  0  0  0
  -10.7457   -0.3311    1.1667 O   0  0  0  0  0  0  0  0  0  0  0  0
    7.7398   -1.1591    1.2778 C   0  0  0  0  0  0  0  0  0  0  0  0
    8.9248   -0.4472    1.9462 C   0  0  0  0  0  0  0  0  0  0  0  0
   10.0744   -0.2586    0.9849 C   0  0  0  0  0  0  0  0  0  0  0  0
   11.0344   -1.1788    0.7489 C   0  0  0  0  0  0  0  0  0  0  0  0
   12.0823   -0.8742   -0.2903 C   0  0  0  0  0  0  0  0  0  0  0  0
   11.0955   -2.4850    1.5049 C   0  0  0  0  0  0  0  0  0  0  0  0
    6.6035   -0.9910   -1.8369 H   0  0  0  0  0  0  0  0  0  0  0  0
    8.0264    0.1392   -1.7803 H   0  0  0  0  0  0  0  0  0  0  0  0
    8.2143   -1.5763   -1.3047 H   0  0  0  0  0  0  0  0  0  0  0  0
    6.1519    0.9252    1.4767 H   0  0  0  0  0  0  0  0  0  0  0  0
    6.0539    1.4095   -1.6171 H   0  0  0  0  0  0  0  0  0  0  0  0
    6.0436    2.6635   -0.3986 H   0  0  0  0  0  0  0  0  0  0  0  0
    5.1109    3.1314    1.5454 H   0  0  0  0  0  0  0  0  0  0  0  0
    1.5785    2.5538    1.4175 H   0  0  0  0  0  0  0  0  0  0  0  0
    1.5831   -0.0107   -2.0410 H   0  0  0  0  0  0  0  0  0  0  0  0
    3.7005   -0.5832   -3.0614 H   0  0  0  0  0  0  0  0  0  0  0  0
   -0.5097    0.3019   -0.8346 H   0  0  0  0  0  0  0  0  0  0  0  0
   -0.4903    2.9446    0.6968 H   0  0  0  0  0  0  0  0  0  0  0  0
   -2.6575    4.0555    0.4965 H   0  0  0  0  0  0  0  0  0  0  0  0
   -4.8619    5.1147    0.5840 H   0  0  0  0  0  0  0  0  0  0  0  0
   -2.4825   -0.2343    0.0665 H   0  0  0  0  0  0  0  0  0  0  0  0
   -4.6058   -1.4529    0.5961 H   0  0  0  0  0  0  0  0  0  0  0  0
   -5.0418   -1.0322   -1.0904 H   0  0  0  0  0  0  0  0  0  0  0  0
   -6.5801   -0.3755    1.4817 H   0  0  0  0  0  0  0  0  0  0  0  0
   -7.9774   -0.2249   -2.1953 H   0  0  0  0  0  0  0  0  0  0  0  0
   -6.3223    0.4811   -2.2043 H   0  0  0  0  0  0  0  0  0  0  0  0
   -7.7524    1.5407   -2.1744 H   0  0  0  0  0  0  0  0  0  0  0  0
   -8.8270    1.6500    0.9941 H   0  0  0  0  0  0  0  0  0  0  0  0
   -9.4883    1.0486   -0.5256 H   0  0  0  0  0  0  0  0  0  0  0  0
   -8.9081   -0.4340    2.0946 H   0  0  0  0  0  0  0  0  0  0  0  0
   -9.4048   -2.5604    1.0801 H   0  0  0  0  0  0  0  0  0  0  0  0
   -5.8981   -3.0732    1.5346 H   0  0  0  0  0  0  0  0  0  0  0  0
   -7.2566   -2.3869    2.4900 H   0  0  0  0  0  0  0  0  0  0  0  0
   -7.4961   -3.8701    1.5046 H   0  0  0  0  0  0  0  0  0  0  0  0
   -7.2033   -2.2517   -1.8809 H   0  0  0  0  0  0  0  0  0  0  0  0
   -5.9941   -3.1661   -0.9291 H   0  0  0  0  0  0  0  0  0  0  0  0
   -7.6834   -3.7431   -1.0119 H   0  0  0  0  0  0  0  0  0  0  0  0
   -9.7614   -1.1184   -1.2868 H   0  0  0  0  0  0  0  0  0  0  0  0
  -10.9351    0.3064    1.9025 H   0  0  0  0  0  0  0  0  0  0  0  0
    6.9503   -1.3455    2.0381 H   0  0  0  0  0  0  0  0  0  0  0  0
    8.0595   -2.1578    0.9137 H   0  0  0  0  0  0  0  0  0  0  0  0
    8.5945    0.5513    2.3044 H   0  0  0  0  0  0  0  0  0  0  0  0
    9.2466   -1.0124    2.8445 H   0  0  0  0  0  0  0  0  0  0  0  0
   10.0929    0.6738    0.4270 H   0  0  0  0  0  0  0  0  0  0  0  0
   12.8136   -1.7019   -0.3952 H   0  0  0  0  0  0  0  0  0  0  0  0
   11.5963   -0.7142   -1.2745 H   0  0  0  0  0  0  0  0  0  0  0  0
   12.6336    0.0470   -0.0052 H   0  0  0  0  0  0  0  0  0  0  0  0
   11.9444   -3.1148    1.1636 H   0  0  0  0  0  0  0  0  0  0  0  0
   10.1629   -3.0648    1.3509 H   0  0  0  0  0  0  0  0  0  0  0  0
   11.2368   -2.2888    2.5883 H   0  0  0  0  0  0  0  0  0  0  0  0
  1  2  1  0
  2  3  2  0
  3  4  1  0
  4  5  1  0
  5  6  2  0
  6  7  1  0
  6  8  1  0
  8  9  2  0
  9 10  1  0
 10 11  2  0
 11 12  1  0
  9 13  1  0
 13 14  2  0
 14 15  1  0
 15 16  2  0
 16 17  1  0
 17 18  1  0
 17 19  2  0
 19 20  1  0
 20 21  2  0
 20 22  1  0
 22 23  1  0
 23 24  1  0
 24 25  1  0
 24 26  1  6
 24 27  1  0
 27 28  1  0
 28 29  1  0
 29 30  1  0
 30 31  1  0
 30 32  1  0
 29 33  1  0
 28 34  1  0
  2 35  1  0
 35 36  1  0
 36 37  1  0
 37 38  2  3
 38 39  1  0
 38 40  1  0
 11  5  1  0
 21 15  1  0
 30 23  1  0
 25 19  1  0
  1 41  1  0
  1 42  1  0
  1 43  1  0
  3 44  1  0
  4 45  1  0
  4 46  1  0
  7 47  1  0
  8 48  1  0
 10 49  1  0
 12 50  1  0
 13 51  1  0
 14 52  1  0
 16 53  1  0
 18 54  1  0
 21 55  1  0
 22 56  1  0
 22 57  1  0
 23 58  1  1
 26 59  1  0
 26 60  1  0
 26 61  1  0
 27 62  1  0
 27 63  1  0
 28 64  1  1
 29 65  1  1
 31 66  1  0
 31 67  1  0
 31 68  1  0
 32 69  1  0
 32 70  1  0
 32 71  1  0
 33 72  1  0
 34 73  1  0
 35 74  1  0
 35 75  1  0
 36 76  1  0
 36 77  1  0
 37 78  1  0
 39 79  1  0
 39 80  1  0
 39 81  1  0
 40 82  1  0
 40 83  1  0
 40 84  1  0
M  END
$$$$
