
     RDKit          3D

 46 47  0  0  0  0  0  0  0  0999 V2000
   -1.8125   -1.1205   -2.5983 O   0  0  0  0  0  0  0  0  0  0  0  0
   -1.8679   -1.0675   -1.1911 C   0  0  1  0  0  0  0  0  0  0  0  0
   -1.8419   -2.4976   -0.5905 C   0  0  1  0  0  0  0  0  0  0  0  0
   -0.4440   -3.0518   -0.4687 C   0  0  0  0  0  0  0  0  0  0  0  0
    0.6623   -2.2906   -0.4856 C   0  0  0  0  0  0  0  0  0  0  0  0
    0.6518   -0.8154   -0.8257 C   0  0  0  0  0  0  0  0  0  0  0  0
   -0.7436   -0.1587   -0.6068 C   0  0  2  0  0  0  0  0  0  0  0  0
   -0.9825    0.0660    0.7672 O   0  0  0  0  0  0  0  0  0  0  0  0
   -0.7628    1.2233   -1.2973 C   0  0  0  0  0  0  0  0  0  0  0  0
   -2.0205    1.8622   -1.0915 O   0  0  0  0  0  0  0  0  0  0  0  0
   -2.3129    3.1329   -1.5936 C   0  0  0  0  0  0  0  0  0  0  0  0
   -1.4619    3.7693   -2.2724 O   0  0  0  0  0  0  0  0  0  0  0  0
   -3.6613    3.7237   -1.3591 C   0  0  0  0  0  0  0  0  0  0  0  0
    1.6251   -0.1301   -0.0347 O   0  0  0  0  0  0  0  0  0  0  0  0
    3.0066   -0.2159   -0.2500 C   0  0  0  0  0  0  0  0  0  0  0  0
    3.4578   -0.9090   -1.2034 O   0  0  0  0  0  0  0  0  0  0  0  0
    3.9335    0.5138    0.6418 C   0  0  0  0  0  0  0  0  0  0  0  0
    5.3266    0.4244    0.4605 C   0  0  0  0  0  0  0  0  0  0  0  0
    6.1960    1.1171    1.3090 C   0  0  0  0  0  0  0  0  0  0  0  0
    5.6862    1.9040    2.3443 C   0  0  0  0  0  0  0  0  0  0  0  0
    4.3058    2.0003    2.5332 C   0  0  0  0  0  0  0  0  0  0  0  0
    3.4317    1.3096    1.6880 C   0  0  0  0  0  0  0  0  0  0  0  0
   -2.4440   -2.5125    0.7048 O   0  0  0  0  0  0  0  0  0  0  0  0
   -3.8255   -2.4477    0.9186 C   0  0  0  0  0  0  0  0  0  0  0  0
   -4.6300   -2.4211   -0.0520 O   0  0  0  0  0  0  0  0  0  0  0  0
   -4.3515   -2.3904    2.3119 C   0  0  0  0  0  0  0  0  0  0  0  0
   -1.0223   -1.6609   -2.8578 H   0  0  0  0  0  0  0  0  0  0  0  0
   -2.8461   -0.6082   -0.9326 H   0  0  0  0  0  0  0  0  0  0  0  0
   -2.4114   -3.1825   -1.2575 H   0  0  0  0  0  0  0  0  0  0  0  0
   -0.3377   -4.1123   -0.2593 H   0  0  0  0  0  0  0  0  0  0  0  0
    1.6217   -2.7821   -0.3560 H   0  0  0  0  0  0  0  0  0  0  0  0
    0.9299   -0.7216   -1.8993 H   0  0  0  0  0  0  0  0  0  0  0  0
   -0.7085   -0.7371    1.2801 H   0  0  0  0  0  0  0  0  0  0  0  0
   -0.5748    1.1203   -2.3888 H   0  0  0  0  0  0  0  0  0  0  0  0
    0.0406    1.8634   -0.8697 H   0  0  0  0  0  0  0  0  0  0  0  0
   -4.2822    3.6024   -2.2709 H   0  0  0  0  0  0  0  0  0  0  0  0
   -4.1587    3.2109   -0.5094 H   0  0  0  0  0  0  0  0  0  0  0  0
   -3.5660    4.8037   -1.1200 H   0  0  0  0  0  0  0  0  0  0  0  0
    5.7442   -0.1808   -0.3346 H   0  0  0  0  0  0  0  0  0  0  0  0
    7.2660    1.0429    1.1639 H   0  0  0  0  0  0  0  0  0  0  0  0
    6.3610    2.4393    2.9999 H   0  0  0  0  0  0  0  0  0  0  0  0
    3.9121    2.6107    3.3357 H   0  0  0  0  0  0  0  0  0  0  0  0
    2.3655    1.4000    1.8537 H   0  0  0  0  0  0  0  0  0  0  0  0
   -4.7783   -1.3844    2.5062 H   0  0  0  0  0  0  0  0  0  0  0  0
   -5.1420   -3.1581    2.4472 H   0  0  0  0  0  0  0  0  0  0  0  0
   -3.5338   -2.5835    3.0374 H   0  0  0  0  0  0  0  0  0  0  0  0
  1  2  1  0
  2  3  1  0
  3  4  1  0
  4  5  2  0
  5  6  1  0
  6  7  1  0
  7  8  1  1
  7  9  1  0
  9 10  1  0
 10 11  1  0
 11 12  2  0
 11 13  1  0
  6 14  1  0
 14 15  1  0
 15 16  2  0
 15 17  1  0
 17 18  2  0
 18 19  1  0
 19 20  2  0
 20 21  1  0
 21 22  2  0
  3 23  1  0
 23 24  1  0
 24 25  2  0
 24 26  1  0
  7  2  1  0
 22 17  1  0
  1 27  1  0
  2 28  1  6
  3 29  1  6
  4 30  1  0
  5 31  1  0
  6 32  1  0
  8 33  1  0
  9 34  1  0
  9 35  1  0
 13 36  1  0
 13 37  1  0
 13 38  1  0
 18 39  1  0
 19 40  1  0
 20 41  1  0
 21 42  1  0
 22 43  1  0
 26 44  1  0
 26 45  1  0
 26 46  1  0
M  END
$$$$
