
     RDKit          3D

 56 55  0  0  0  0  0  0  0  0999 V2000
   -6.5212    1.3209    1.6166 C   0  0  0  0  0  0  0  0  0  0  0  0
   -6.8566    1.2848    0.1259 C   0  0  0  0  0  0  0  0  0  0  0  0
   -6.8943   -0.1427   -0.4490 C   0  0  0  0  0  0  0  0  0  0  0  0
   -5.5611   -0.9071   -0.3630 C   0  0  0  0  0  0  0  0  0  0  0  0
   -4.4317   -0.2283   -1.1564 C   0  0  0  0  0  0  0  0  0  0  0  0
   -3.1926   -1.1271   -1.3151 C   0  0  0  0  0  0  0  0  0  0  0  0
   -2.5195   -1.5413    0.0090 C   0  0  0  0  0  0  0  0  0  0  0  0
   -2.0812   -0.3732    0.9152 C   0  0  0  0  0  0  0  0  0  0  0  0
   -1.1269    0.6379    0.2551 C   0  0  0  0  0  0  0  0  0  0  0  0
    0.2045    0.0065   -0.1778 C   0  0  0  0  0  0  0  0  0  0  0  0
    1.1891    1.0814   -0.6618 C   0  0  0  0  0  0  0  0  0  0  0  0
    2.4752    0.4839   -1.2540 C   0  0  0  0  0  0  0  0  0  0  0  0
    3.3700   -0.1693   -0.1899 C   0  0  0  0  0  0  0  0  0  0  0  0
    4.7097   -0.6113   -0.7969 C   0  0  0  0  0  0  0  0  0  0  0  0
    5.5671   -1.4381    0.1783 C   0  0  0  0  0  0  0  0  0  0  0  0
    5.9745   -0.7042    1.4726 C   0  0  0  0  0  0  0  0  0  0  0  0
    6.7867    0.5811    1.2487 C   0  0  0  0  0  0  0  0  0  0  0  0
    8.0737    0.3131    0.5313 C   0  0  0  0  0  0  0  0  0  0  0  0
    9.0558   -0.1704    1.1555 O   0  0  0  0  0  0  0  0  0  0  0  0
    8.1733    0.5677   -0.8329 O   0  0  0  0  0  0  0  0  0  0  0  0
   -5.4620    1.0370    1.7867 H   0  0  0  0  0  0  0  0  0  0  0  0
   -7.1864    0.6345    2.1824 H   0  0  0  0  0  0  0  0  0  0  0  0
   -6.6659    2.3521    2.0022 H   0  0  0  0  0  0  0  0  0  0  0  0
   -6.1348    1.9140   -0.4360 H   0  0  0  0  0  0  0  0  0  0  0  0
   -7.8611    1.7393   -0.0149 H   0  0  0  0  0  0  0  0  0  0  0  0
   -7.2107   -0.0878   -1.5136 H   0  0  0  0  0  0  0  0  0  0  0  0
   -7.6725   -0.7265    0.0895 H   0  0  0  0  0  0  0  0  0  0  0  0
   -5.7290   -1.9264   -0.7746 H   0  0  0  0  0  0  0  0  0  0  0  0
   -5.2674   -1.0270    0.7002 H   0  0  0  0  0  0  0  0  0  0  0  0
   -4.8034    0.0188   -2.1748 H   0  0  0  0  0  0  0  0  0  0  0  0
   -4.1408    0.7265   -0.6725 H   0  0  0  0  0  0  0  0  0  0  0  0
   -3.4874   -2.0497   -1.8610 H   0  0  0  0  0  0  0  0  0  0  0  0
   -2.4520   -0.6080   -1.9597 H   0  0  0  0  0  0  0  0  0  0  0  0
   -1.6374   -2.1740   -0.2254 H   0  0  0  0  0  0  0  0  0  0  0  0
   -3.2125   -2.1922    0.5832 H   0  0  0  0  0  0  0  0  0  0  0  0
   -1.5854   -0.7969    1.8157 H   0  0  0  0  0  0  0  0  0  0  0  0
   -2.9795    0.1674    1.2812 H   0  0  0  0  0  0  0  0  0  0  0  0
   -1.6195    1.1217   -0.6146 H   0  0  0  0  0  0  0  0  0  0  0  0
   -0.9191    1.4389    0.9981 H   0  0  0  0  0  0  0  0  0  0  0  0
    0.6422   -0.5396    0.6846 H   0  0  0  0  0  0  0  0  0  0  0  0
    0.0222   -0.7135   -1.0038 H   0  0  0  0  0  0  0  0  0  0  0  0
    0.6974    1.6877   -1.4539 H   0  0  0  0  0  0  0  0  0  0  0  0
    1.4441    1.7663    0.1764 H   0  0  0  0  0  0  0  0  0  0  0  0
    2.2170   -0.2594   -2.0401 H   0  0  0  0  0  0  0  0  0  0  0  0
    3.0415    1.3071   -1.7425 H   0  0  0  0  0  0  0  0  0  0  0  0
    2.8565   -1.0571    0.2364 H   0  0  0  0  0  0  0  0  0  0  0  0
    3.5557    0.5642    0.6234 H   0  0  0  0  0  0  0  0  0  0  0  0
    5.2772    0.2739   -1.1536 H   0  0  0  0  0  0  0  0  0  0  0  0
    4.5076   -1.2465   -1.6872 H   0  0  0  0  0  0  0  0  0  0  0  0
    6.4823   -1.7766   -0.3534 H   0  0  0  0  0  0  0  0  0  0  0  0
    5.0053   -2.3560    0.4582 H   0  0  0  0  0  0  0  0  0  0  0  0
    6.5771   -1.4024    2.0941 H   0  0  0  0  0  0  0  0  0  0  0  0
    5.0684   -0.4613    2.0665 H   0  0  0  0  0  0  0  0  0  0  0  0
    6.1878    1.3291    0.6889 H   0  0  0  0  0  0  0  0  0  0  0  0
    7.0182    1.0315    2.2381 H   0  0  0  0  0  0  0  0  0  0  0  0
    9.0321    0.3779   -1.3354 H   0  0  0  0  0  0  0  0  0  0  0  0
  1  2  1  0
  2  3  1  0
  3  4  1  0
  4  5  1  0
  5  6  1  0
  6  7  1  0
  7  8  1  0
  8  9  1  0
  9 10  1  0
 10 11  1  0
 11 12  1  0
 12 13  1  0
 13 14  1  0
 14 15  1  0
 15 16  1  0
 16 17  1  0
 17 18  1  0
 18 19  2  0
 18 20  1  0
  1 21  1  0
  1 22  1  0
  1 23  1  0
  2 24  1  0
  2 25  1  0
  3 26  1  0
  3 27  1  0
  4 28  1  0
  4 29  1  0
  5 30  1  0
  5 31  1  0
  6 32  1  0
  6 33  1  0
  7 34  1  0
  7 35  1  0
  8 36  1  0
  8 37  1  0
  9 38  1  0
  9 39  1  0
 10 40  1  0
 10 41  1  0
 11 42  1  0
 11 43  1  0
 12 44  1  0
 12 45  1  0
 13 46  1  0
 13 47  1  0
 14 48  1  0
 14 49  1  0
 15 50  1  0
 15 51  1  0
 16 52  1  0
 16 53  1  0
 17 54  1  0
 17 55  1  0
 20 56  1  0
M  END
$$$$
