
     RDKit          3D

 49 50  0  0  0  0  0  0  0  0999 V2000
   -2.3982   -0.6436    3.3726 C   0  0  0  0  0  0  0  0  0  0  0  0
   -1.9953   -1.0792    2.0929 O   0  0  0  0  0  0  0  0  0  0  0  0
   -2.9960   -0.8003    1.1236 C   0  0  2  0  0  0  0  0  0  0  0  0
   -3.8467   -2.0637    0.8726 C   0  0  0  0  0  0  0  0  0  0  0  0
   -3.1421   -3.0529   -0.0138 C   0  0  0  0  0  0  0  0  0  0  0  0
   -3.7458   -4.0334   -0.4212 O   0  0  0  0  0  0  0  0  0  0  0  0
   -1.6871   -2.8803   -0.3450 C   0  0  0  0  0  0  0  0  0  0  0  0
   -1.3177   -1.4238   -0.7346 C   0  0  0  0  0  0  0  0  0  0  0  0
   -2.3267   -0.3267   -0.2016 C   0  0  1  0  0  0  0  0  0  0  0  0
   -3.3535   -0.1586   -1.1579 O   0  0  0  0  0  0  0  0  0  0  0  0
   -1.6171    1.0480    0.0174 C   0  0  0  0  0  0  0  0  0  0  0  0
   -2.5781    2.1655    0.3029 C   0  0  0  0  0  0  0  0  0  0  0  0
   -2.7564    2.5524    1.4904 O   0  0  0  0  0  0  0  0  0  0  0  0
   -3.2809    2.7565   -0.7510 O   0  0  0  0  0  0  0  0  0  0  0  0
   -4.2268    3.7994   -0.5507 C   0  0  0  0  0  0  0  0  0  0  0  0
    0.0593   -1.1590   -0.2894 N   0  0  0  0  0  0  0  0  0  0  0  0
    1.0961   -0.6874   -1.1643 C   0  0  0  0  0  0  0  0  0  0  0  0
    0.8655   -0.5256   -2.3943 O   0  0  0  0  0  0  0  0  0  0  0  0
    2.4305   -0.3848   -0.6111 C   0  0  0  0  0  0  0  0  0  0  0  0
    3.4424    0.0457   -1.3783 C   0  0  0  0  0  0  0  0  0  0  0  0
    4.7979    0.3521   -0.8584 C   0  0  0  0  0  0  0  0  0  0  0  0
    5.8770    0.3665   -1.7595 C   0  0  0  0  0  0  0  0  0  0  0  0
    7.1700    0.6597   -1.3157 C   0  0  0  0  0  0  0  0  0  0  0  0
    7.3991    0.9521    0.0301 C   0  0  0  0  0  0  0  0  0  0  0  0
    6.3345    0.9580    0.9336 C   0  0  0  0  0  0  0  0  0  0  0  0
    5.0389    0.6647    0.4959 C   0  0  0  0  0  0  0  0  0  0  0  0
   -3.3705   -1.0952    3.6697 H   0  0  0  0  0  0  0  0  0  0  0  0
   -1.6362   -0.9645    4.1119 H   0  0  0  0  0  0  0  0  0  0  0  0
   -2.4585    0.4660    3.4084 H   0  0  0  0  0  0  0  0  0  0  0  0
   -3.7029    0.0004    1.4528 H   0  0  0  0  0  0  0  0  0  0  0  0
   -4.7986   -1.7669    0.3801 H   0  0  0  0  0  0  0  0  0  0  0  0
   -4.1071   -2.5524    1.8354 H   0  0  0  0  0  0  0  0  0  0  0  0
   -1.1116   -3.1996    0.5509 H   0  0  0  0  0  0  0  0  0  0  0  0
   -1.4000   -3.5674   -1.1716 H   0  0  0  0  0  0  0  0  0  0  0  0
   -1.3458   -1.3904   -1.8460 H   0  0  0  0  0  0  0  0  0  0  0  0
   -2.9508    0.2157   -1.9854 H   0  0  0  0  0  0  0  0  0  0  0  0
   -1.0458    1.3195   -0.8966 H   0  0  0  0  0  0  0  0  0  0  0  0
   -0.8862    0.9817    0.8527 H   0  0  0  0  0  0  0  0  0  0  0  0
   -3.7311    4.6786   -0.0872 H   0  0  0  0  0  0  0  0  0  0  0  0
   -4.6503    4.1004   -1.5308 H   0  0  0  0  0  0  0  0  0  0  0  0
   -5.0508    3.4442    0.1037 H   0  0  0  0  0  0  0  0  0  0  0  0
    0.2782   -1.2568    0.7281 H   0  0  0  0  0  0  0  0  0  0  0  0
    2.5766   -0.5467    0.4475 H   0  0  0  0  0  0  0  0  0  0  0  0
    3.2872    0.1411   -2.4469 H   0  0  0  0  0  0  0  0  0  0  0  0
    5.7199    0.1422   -2.8077 H   0  0  0  0  0  0  0  0  0  0  0  0
    7.9947    0.6612   -2.0167 H   0  0  0  0  0  0  0  0  0  0  0  0
    8.4004    1.1805    0.3717 H   0  0  0  0  0  0  0  0  0  0  0  0
    6.5119    1.1976    1.9742 H   0  0  0  0  0  0  0  0  0  0  0  0
    4.2342    0.7093    1.2163 H   0  0  0  0  0  0  0  0  0  0  0  0
  1  2  1  0
  2  3  1  0
  3  4  1  0
  4  5  1  0
  5  6  2  0
  5  7  1  0
  7  8  1  0
  8  9  1  0
  9 10  1  6
  9 11  1  0
 11 12  1  0
 12 13  2  0
 12 14  1  0
 14 15  1  0
  8 16  1  0
 16 17  1  0
 17 18  2  0
 17 19  1  0
 19 20  2  0
 20 21  1  0
 21 22  2  0
 22 23  1  0
 23 24  2  0
 24 25  1  0
 25 26  2  0
  9  3  1  0
 26 21  1  0
  1 27  1  0
  1 28  1  0
  1 29  1  0
  3 30  1  1
  4 31  1  0
  4 32  1  0
  7 33  1  0
  7 34  1  0
  8 35  1  0
 10 36  1  0
 11 37  1  0
 11 38  1  0
 15 39  1  0
 15 40  1  0
 15 41  1  0
 16 42  1  0
 19 43  1  0
 20 44  1  0
 22 45  1  0
 23 46  1  0
 24 47  1  0
 25 48  1  0
 26 49  1  0
M  END
$$$$
