
     RDKit          3D

 62 65  0  0  0  0  0  0  0  0999 V2000
   -0.2232   -1.4508    3.8309 C   0  0  0  0  0  0  0  0  0  0  0  0
    0.1012   -0.8389    2.5871 O   0  0  0  0  0  0  0  0  0  0  0  0
   -0.8404   -0.3989    1.6401 C   0  0  0  0  0  0  0  0  0  0  0  0
   -2.2194   -0.5132    1.8657 C   0  0  0  0  0  0  0  0  0  0  0  0
   -3.1426   -0.0542    0.9216 C   0  0  0  0  0  0  0  0  0  0  0  0
   -4.6074   -0.0855    1.2752 C   0  0  0  0  0  0  0  0  0  0  0  0
   -5.5066    0.0812    0.0440 C   0  0  1  0  0  0  0  0  0  0  0  0
   -6.9567    0.3204    0.4804 C   0  0  0  0  0  0  0  0  0  0  0  0
   -5.0305    1.2144   -0.7639 N   0  0  0  0  0  0  0  0  0  0  0  0
   -3.6901    0.9752   -1.3357 C   0  0  1  0  0  0  0  0  0  0  0  0
   -2.6894    0.5359   -0.2762 C   0  0  0  0  0  0  0  0  0  0  0  0
   -1.3027    0.6421   -0.5286 C   0  0  0  0  0  0  0  0  0  0  0  0
   -0.3769    0.1842    0.4463 C   0  0  0  0  0  0  0  0  0  0  0  0
    1.0884    0.3824    0.2940 C   0  0  0  0  0  0  0  0  0  0  0  0
    1.6464    1.6457    0.5812 C   0  0  0  0  0  0  0  0  0  0  0  0
    0.7799    2.8055    1.0071 C   0  0  0  0  0  0  0  0  0  0  0  0
    3.0228    1.8424    0.4429 C   0  0  0  0  0  0  0  0  0  0  0  0
    3.8782    0.7992    0.0520 C   0  0  0  0  0  0  0  0  0  0  0  0
    3.3402   -0.4863   -0.2137 C   0  0  0  0  0  0  0  0  0  0  0  0
    1.9338   -0.6915   -0.0901 C   0  0  0  0  0  0  0  0  0  0  0  0
    1.3974   -1.9660   -0.3691 C   0  0  0  0  0  0  0  0  0  0  0  0
    2.2202   -3.0179   -0.7506 C   0  0  0  0  0  0  0  0  0  0  0  0
    3.5911   -2.8297   -0.8665 C   0  0  0  0  0  0  0  0  0  0  0  0
    4.1707   -1.5749   -0.6045 C   0  0  0  0  0  0  0  0  0  0  0  0
    5.5598   -1.3922   -0.7260 O   0  0  0  0  0  0  0  0  0  0  0  0
    6.4887   -2.4020   -1.1084 C   0  0  0  0  0  0  0  0  0  0  0  0
    5.2613    1.0207   -0.0777 O   0  0  0  0  0  0  0  0  0  0  0  0
    5.9209    2.2611    0.1569 C   0  0  0  0  0  0  0  0  0  0  0  0
   -0.9061    1.2291   -1.7455 O   0  0  0  0  0  0  0  0  0  0  0  0
    0.2131    0.8351   -2.5328 C   0  0  0  0  0  0  0  0  0  0  0  0
   -3.7320   -0.0353   -2.4996 C   0  0  0  0  0  0  0  0  0  0  0  0
   -0.8130   -0.7501    4.4588 H   0  0  0  0  0  0  0  0  0  0  0  0
    0.7154   -1.7020    4.3660 H   0  0  0  0  0  0  0  0  0  0  0  0
   -0.7951   -2.3868    3.6582 H   0  0  0  0  0  0  0  0  0  0  0  0
   -2.5872   -0.9394    2.7897 H   0  0  0  0  0  0  0  0  0  0  0  0
   -4.8539   -1.0483    1.7751 H   0  0  0  0  0  0  0  0  0  0  0  0
   -4.8001    0.7390    1.9965 H   0  0  0  0  0  0  0  0  0  0  0  0
   -5.4918   -0.8584   -0.5501 H   0  0  0  0  0  0  0  0  0  0  0  0
   -7.3084   -0.5160    1.1215 H   0  0  0  0  0  0  0  0  0  0  0  0
   -7.6178    0.3755   -0.4105 H   0  0  0  0  0  0  0  0  0  0  0  0
   -7.0423    1.2725    1.0471 H   0  0  0  0  0  0  0  0  0  0  0  0
   -5.7046    1.3950   -1.5452 H   0  0  0  0  0  0  0  0  0  0  0  0
   -3.3458    1.9465   -1.7541 H   0  0  0  0  0  0  0  0  0  0  0  0
    0.1214    2.5030    1.8484 H   0  0  0  0  0  0  0  0  0  0  0  0
    1.3870    3.6695    1.3513 H   0  0  0  0  0  0  0  0  0  0  0  0
    0.1545    3.1374    0.1524 H   0  0  0  0  0  0  0  0  0  0  0  0
    3.4278    2.8238    0.6479 H   0  0  0  0  0  0  0  0  0  0  0  0
    0.3354   -2.1618   -0.3020 H   0  0  0  0  0  0  0  0  0  0  0  0
    1.7903   -3.9892   -0.9603 H   0  0  0  0  0  0  0  0  0  0  0  0
    4.1957   -3.6746   -1.1655 H   0  0  0  0  0  0  0  0  0  0  0  0
    6.4660   -3.2385   -0.3784 H   0  0  0  0  0  0  0  0  0  0  0  0
    6.2514   -2.7736   -2.1276 H   0  0  0  0  0  0  0  0  0  0  0  0
    7.5097   -1.9687   -1.1184 H   0  0  0  0  0  0  0  0  0  0  0  0
    5.7741    2.5791    1.2106 H   0  0  0  0  0  0  0  0  0  0  0  0
    5.5350    3.0369   -0.5377 H   0  0  0  0  0  0  0  0  0  0  0  0
    7.0075    2.1325   -0.0254 H   0  0  0  0  0  0  0  0  0  0  0  0
    0.0502    1.1736   -3.5762 H   0  0  0  0  0  0  0  0  0  0  0  0
    0.3151   -0.2704   -2.5372 H   0  0  0  0  0  0  0  0  0  0  0  0
    1.1397    1.3189   -2.1661 H   0  0  0  0  0  0  0  0  0  0  0  0
   -2.7739   -0.0177   -3.0593 H   0  0  0  0  0  0  0  0  0  0  0  0
   -4.5418    0.2252   -3.2131 H   0  0  0  0  0  0  0  0  0  0  0  0
   -3.8906   -1.0705   -2.1325 H   0  0  0  0  0  0  0  0  0  0  0  0
  1  2  1  0
  2  3  1  0
  3  4  2  0
  4  5  1  0
  5  6  1  0
  6  7  1  0
  7  8  1  0
  7  9  1  0
  9 10  1  0
 10 11  1  0
 11 12  1  0
 12 13  2  0
 13 14  1  0
 14 15  2  0
 15 16  1  0
 15 17  1  0
 17 18  2  0
 18 19  1  0
 19 20  2  0
 20 21  1  0
 21 22  2  0
 22 23  1  0
 23 24  2  0
 24 25  1  0
 25 26  1  0
 18 27  1  0
 27 28  1  0
 12 29  1  0
 29 30  1  0
 10 31  1  0
 13  3  1  0
 20 14  1  0
 11  5  2  0
 24 19  1  0
  1 32  1  0
  1 33  1  0
  1 34  1  0
  4 35  1  0
  6 36  1  0
  6 37  1  0
  7 38  1  6
  8 39  1  0
  8 40  1  0
  8 41  1  0
  9 42  1  0
 10 43  1  6
 16 44  1  0
 16 45  1  0
 16 46  1  0
 17 47  1  0
 21 48  1  0
 22 49  1  0
 23 50  1  0
 26 51  1  0
 26 52  1  0
 26 53  1  0
 28 54  1  0
 28 55  1  0
 28 56  1  0
 30 57  1  0
 30 58  1  0
 30 59  1  0
 31 60  1  0
 31 61  1  0
 31 62  1  0
M  END
$$$$
