
     RDKit          3D

 78 82  0  0  0  0  0  0  0  0999 V2000
   -1.1072   -2.2090   -1.6462 C   0  0  0  0  0  0  0  0  0  0  0  0
   -1.2703   -1.8552   -0.2780 O   0  0  0  0  0  0  0  0  0  0  0  0
   -1.3862   -0.5233    0.1393 C   0  0  0  0  0  0  0  0  0  0  0  0
   -0.2780    0.1282    0.7235 C   0  0  0  0  0  0  0  0  0  0  0  0
    1.0614   -0.5871    0.8029 C   0  0  0  0  0  0  0  0  0  0  0  0
    2.1825    0.1578    0.1038 C   0  0  0  0  0  0  0  0  0  0  0  0
    3.4257    0.2756    0.7501 C   0  0  0  0  0  0  0  0  0  0  0  0
    4.5010    0.9333    0.1331 C   0  0  0  0  0  0  0  0  0  0  0  0
    4.3389    1.4529   -1.1576 C   0  0  0  0  0  0  0  0  0  0  0  0
    3.1160    1.3287   -1.8166 C   0  0  0  0  0  0  0  0  0  0  0  0
    2.0380    0.6780   -1.2010 C   0  0  0  0  0  0  0  0  0  0  0  0
    0.8304    0.5506   -1.8865 O   0  0  0  0  0  0  0  0  0  0  0  0
    5.8359    1.0236    0.8241 C   0  0  0  0  0  0  0  0  0  0  0  0
    6.7004   -0.1541    0.4479 C   0  0  0  0  0  0  0  0  0  0  0  0
    7.5197   -0.0777   -0.6916 C   0  0  0  0  0  0  0  0  0  0  0  0
    8.2996   -1.1707   -1.0774 C   0  0  0  0  0  0  0  0  0  0  0  0
    8.2631   -2.3532   -0.3372 C   0  0  0  0  0  0  0  0  0  0  0  0
    7.4453   -2.4467    0.7909 C   0  0  0  0  0  0  0  0  0  0  0  0
    6.6585   -1.3547    1.1872 C   0  0  0  0  0  0  0  0  0  0  0  0
    5.8396   -1.4616    2.3105 O   0  0  0  0  0  0  0  0  0  0  0  0
   -0.4263    1.4518    1.2031 C   0  0  0  0  0  0  0  0  0  0  0  0
    0.6127    2.1018    1.8760 O   0  0  0  0  0  0  0  0  0  0  0  0
   -1.6380    2.1434    1.0093 C   0  0  0  0  0  0  0  0  0  0  0  0
   -2.7304    1.4950    0.4046 C   0  0  0  0  0  0  0  0  0  0  0  0
   -2.6144    0.1518   -0.0086 C   0  0  0  0  0  0  0  0  0  0  0  0
   -3.7767   -0.5601   -0.5780 C   0  0  0  0  0  0  0  0  0  0  0  0
   -4.3035   -0.1349   -1.6422 O   0  0  0  0  0  0  0  0  0  0  0  0
   -4.3805   -1.7342    0.1439 C   0  0  0  0  0  0  0  0  0  0  0  0
   -4.7542   -2.8658   -0.8219 C   0  0  0  0  0  0  0  0  0  0  0  0
   -5.2115   -4.0805   -0.0601 C   0  0  0  0  0  0  0  0  0  0  0  0
   -4.3190   -5.1356    0.1969 C   0  0  0  0  0  0  0  0  0  0  0  0
   -4.7393   -6.2487    0.9309 C   0  0  0  0  0  0  0  0  0  0  0  0
   -6.0464   -6.3109    1.4236 C   0  0  0  0  0  0  0  0  0  0  0  0
   -6.9354   -5.2583    1.1865 C   0  0  0  0  0  0  0  0  0  0  0  0
   -6.5206   -4.1454    0.4483 C   0  0  0  0  0  0  0  0  0  0  0  0
   -3.9287    2.2022    0.2511 O   0  0  0  0  0  0  0  0  0  0  0  0
   -1.7579    3.6055    1.4026 C   0  0  0  0  0  0  0  0  0  0  0  0
   -1.6008    4.5725    0.2383 C   0  0  0  0  0  0  0  0  0  0  0  0
   -0.9904    4.1713   -0.9723 C   0  0  0  0  0  0  0  0  0  0  0  0
   -0.8656    5.0616   -2.0396 C   0  0  0  0  0  0  0  0  0  0  0  0
   -1.3239    6.3709   -1.9159 C   0  0  0  0  0  0  0  0  0  0  0  0
   -1.8939    6.7993   -0.7176 C   0  0  0  0  0  0  0  0  0  0  0  0
   -2.0198    5.9223    0.3666 C   0  0  0  0  0  0  0  0  0  0  0  0
   -2.5504    6.4294    1.5560 O   0  0  0  0  0  0  0  0  0  0  0  0
   -0.1112   -1.8792   -2.0056 H   0  0  0  0  0  0  0  0  0  0  0  0
   -1.1700   -3.3124   -1.7441 H   0  0  0  0  0  0  0  0  0  0  0  0
   -1.9011   -1.7463   -2.2695 H   0  0  0  0  0  0  0  0  0  0  0  0
    1.2969   -0.7456    1.8762 H   0  0  0  0  0  0  0  0  0  0  0  0
    1.0196   -1.5992    0.3531 H   0  0  0  0  0  0  0  0  0  0  0  0
    3.5572   -0.1400    1.7410 H   0  0  0  0  0  0  0  0  0  0  0  0
    5.1616    1.9462   -1.6587 H   0  0  0  0  0  0  0  0  0  0  0  0
    3.0095    1.7295   -2.8165 H   0  0  0  0  0  0  0  0  0  0  0  0
    0.7048    0.9225   -2.8194 H   0  0  0  0  0  0  0  0  0  0  0  0
    6.3438    1.9738    0.5454 H   0  0  0  0  0  0  0  0  0  0  0  0
    5.6974    1.0653    1.9266 H   0  0  0  0  0  0  0  0  0  0  0  0
    7.5522    0.8284   -1.2836 H   0  0  0  0  0  0  0  0  0  0  0  0
    8.9301   -1.1012   -1.9540 H   0  0  0  0  0  0  0  0  0  0  0  0
    8.8669   -3.1991   -0.6399 H   0  0  0  0  0  0  0  0  0  0  0  0
    7.4213   -3.3695    1.3564 H   0  0  0  0  0  0  0  0  0  0  0  0
    5.7893   -2.3157    2.8527 H   0  0  0  0  0  0  0  0  0  0  0  0
    1.4501    1.6363    2.1932 H   0  0  0  0  0  0  0  0  0  0  0  0
   -3.6649   -2.1201    0.9036 H   0  0  0  0  0  0  0  0  0  0  0  0
   -5.2901   -1.3872    0.6809 H   0  0  0  0  0  0  0  0  0  0  0  0
   -3.8807   -3.1245   -1.4585 H   0  0  0  0  0  0  0  0  0  0  0  0
   -5.5680   -2.5263   -1.5004 H   0  0  0  0  0  0  0  0  0  0  0  0
   -3.2996   -5.0977   -0.1707 H   0  0  0  0  0  0  0  0  0  0  0  0
   -4.0514   -7.0622    1.1224 H   0  0  0  0  0  0  0  0  0  0  0  0
   -6.3690   -7.1733    1.9932 H   0  0  0  0  0  0  0  0  0  0  0  0
   -7.9437   -5.3035    1.5784 H   0  0  0  0  0  0  0  0  0  0  0  0
   -7.2160   -3.3321    0.2775 H   0  0  0  0  0  0  0  0  0  0  0  0
   -4.7808    1.7905   -0.1066 H   0  0  0  0  0  0  0  0  0  0  0  0
   -2.7564    3.7457    1.8659 H   0  0  0  0  0  0  0  0  0  0  0  0
   -1.0190    3.8729    2.1856 H   0  0  0  0  0  0  0  0  0  0  0  0
   -0.6117    3.1677   -1.1088 H   0  0  0  0  0  0  0  0  0  0  0  0
   -0.4133    4.7331   -2.9663 H   0  0  0  0  0  0  0  0  0  0  0  0
   -1.2257    7.0582   -2.7459 H   0  0  0  0  0  0  0  0  0  0  0  0
   -2.2256    7.8255   -0.6222 H   0  0  0  0  0  0  0  0  0  0  0  0
   -2.6019    5.8997    2.4158 H   0  0  0  0  0  0  0  0  0  0  0  0
  1  2  1  0
  2  3  1  0
  3  4  2  0
  4  5  1  0
  5  6  1  0
  6  7  2  0
  7  8  1  0
  8  9  2  0
  9 10  1  0
 10 11  2  0
 11 12  1  0
  8 13  1  0
 13 14  1  0
 14 15  2  0
 15 16  1  0
 16 17  2  0
 17 18  1  0
 18 19  2  0
 19 20  1  0
  4 21  1  0
 21 22  1  0
 21 23  2  0
 23 24  1  0
 24 25  2  0
 25 26  1  0
 26 27  2  0
 26 28  1  0
 28 29  1  0
 29 30  1  0
 30 31  2  0
 31 32  1  0
 32 33  2  0
 33 34  1  0
 34 35  2  0
 24 36  1  0
 23 37  1  0
 37 38  1  0
 38 39  2  0
 39 40  1  0
 40 41  2  0
 41 42  1  0
 42 43  2  0
 43 44  1  0
 25  3  1  0
 35 30  1  0
 43 38  1  0
 11  6  1  0
 19 14  1  0
  1 45  1  0
  1 46  1  0
  1 47  1  0
  5 48  1  0
  5 49  1  0
  7 50  1  0
  9 51  1  0
 10 52  1  0
 12 53  1  0
 13 54  1  0
 13 55  1  0
 15 56  1  0
 16 57  1  0
 17 58  1  0
 18 59  1  0
 20 60  1  0
 22 61  1  0
 28 62  1  0
 28 63  1  0
 29 64  1  0
 29 65  1  0
 31 66  1  0
 32 67  1  0
 33 68  1  0
 34 69  1  0
 35 70  1  0
 36 71  1  0
 37 72  1  0
 37 73  1  0
 39 74  1  0
 40 75  1  0
 41 76  1  0
 42 77  1  0
 44 78  1  0
M  END
$$$$
