
     RDKit          3D

 90 96  0  0  0  0  0  0  0  0999 V2000
    1.7505   -2.6752    0.7408 C   0  0  0  0  0  0  0  0  0  0  0  0
    0.8309   -2.0497   -0.1490 O   0  0  0  0  0  0  0  0  0  0  0  0
    0.0863   -0.9300    0.2349 C   0  0  0  0  0  0  0  0  0  0  0  0
   -1.0540   -1.0730    1.0575 C   0  0  0  0  0  0  0  0  0  0  0  0
   -1.6582   -2.4432    1.3146 C   0  0  0  0  0  0  0  0  0  0  0  0
   -2.8616   -2.6712    0.4284 C   0  0  0  0  0  0  0  0  0  0  0  0
   -4.1519   -2.4487    0.9358 C   0  0  0  0  0  0  0  0  0  0  0  0
   -5.2800   -2.5737    0.1126 C   0  0  0  0  0  0  0  0  0  0  0  0
   -5.1149   -2.9669   -1.2241 C   0  0  0  0  0  0  0  0  0  0  0  0
   -3.8382   -3.2126   -1.7336 C   0  0  0  0  0  0  0  0  0  0  0  0
   -2.7087   -3.0564   -0.9191 C   0  0  0  0  0  0  0  0  0  0  0  0
   -1.4373   -3.2842   -1.4447 O   0  0  0  0  0  0  0  0  0  0  0  0
   -6.6418   -2.2227    0.6534 C   0  0  0  0  0  0  0  0  0  0  0  0
   -6.8040   -0.7194    0.7289 C   0  0  0  0  0  0  0  0  0  0  0  0
   -6.4422   -0.0625    1.9218 C   0  0  0  0  0  0  0  0  0  0  0  0
   -6.5027    1.3302    2.0175 C   0  0  0  0  0  0  0  0  0  0  0  0
   -6.9190    2.0881    0.9234 C   0  0  0  0  0  0  0  0  0  0  0  0
   -7.2808    1.4551   -0.2671 C   0  0  0  0  0  0  0  0  0  0  0  0
   -7.2308    0.0593   -0.3789 C   0  0  0  0  0  0  0  0  0  0  0  0
   -7.6152   -0.5056   -1.5970 O   0  0  0  0  0  0  0  0  0  0  0  0
   -1.7079    0.0772    1.5518 C   0  0  0  0  0  0  0  0  0  0  0  0
   -2.8306   -0.1030    2.3653 O   0  0  0  0  0  0  0  0  0  0  0  0
   -1.2376    1.3669    1.1977 C   0  0  0  0  0  0  0  0  0  0  0  0
   -0.2174    1.4824    0.2325 C   0  0  0  0  0  0  0  0  0  0  0  0
    0.4669    0.3432   -0.2311 C   0  0  0  0  0  0  0  0  0  0  0  0
    1.5829    0.4826   -1.2501 C   0  0  0  0  0  0  0  0  0  0  0  0
    2.9566    0.2272   -0.6659 C   0  0  0  0  0  0  0  0  0  0  0  0
    3.8146   -0.6956   -1.2972 C   0  0  0  0  0  0  0  0  0  0  0  0
    5.1239   -0.9008   -0.8272 C   0  0  0  0  0  0  0  0  0  0  0  0
    5.5757   -0.1718    0.2819 C   0  0  0  0  0  0  0  0  0  0  0  0
    4.7337    0.7393    0.9183 C   0  0  0  0  0  0  0  0  0  0  0  0
    3.4344    0.9582    0.4442 C   0  0  0  0  0  0  0  0  0  0  0  0
    2.6280    1.9083    1.0683 O   0  0  0  0  0  0  0  0  0  0  0  0
    6.0639   -1.8317   -1.5545 C   0  0  0  0  0  0  0  0  0  0  0  0
    6.5709   -2.9264   -0.6457 C   0  0  0  0  0  0  0  0  0  0  0  0
    7.8269   -2.7918   -0.0235 C   0  0  0  0  0  0  0  0  0  0  0  0
    8.2993   -3.7806    0.8435 C   0  0  0  0  0  0  0  0  0  0  0  0
    7.5260   -4.9156    1.0966 C   0  0  0  0  0  0  0  0  0  0  0  0
    6.2762   -5.0621    0.4849 C   0  0  0  0  0  0  0  0  0  0  0  0
    5.7902   -4.0698   -0.3833 C   0  0  0  0  0  0  0  0  0  0  0  0
    4.5408   -4.2179   -0.9839 O   0  0  0  0  0  0  0  0  0  0  0  0
    0.1328    2.7498   -0.2549 O   0  0  0  0  0  0  0  0  0  0  0  0
   -0.6972    3.8933   -0.0593 C   0  0  1  0  0  0  0  0  0  0  0  0
   -1.1599    3.9578    1.3997 C   0  0  0  0  0  0  0  0  0  0  0  0
   -1.7132    2.6303    1.8378 C   0  0  0  0  0  0  0  0  0  0  0  0
   -2.4724    2.6123    2.8420 O   0  0  0  0  0  0  0  0  0  0  0  0
    0.0441    5.1527   -0.4430 C   0  0  0  0  0  0  0  0  0  0  0  0
   -0.6314    6.1975   -1.0975 C   0  0  0  0  0  0  0  0  0  0  0  0
    0.0381    7.3848   -1.4116 C   0  0  0  0  0  0  0  0  0  0  0  0
    1.3834    7.5423   -1.0683 C   0  0  0  0  0  0  0  0  0  0  0  0
    2.0606    6.5148   -0.4066 C   0  0  0  0  0  0  0  0  0  0  0  0
    1.3948    5.3274   -0.0882 C   0  0  0  0  0  0  0  0  0  0  0  0
    1.2430   -2.9898    1.6762 H   0  0  0  0  0  0  0  0  0  0  0  0
    2.1808   -3.5672    0.2433 H   0  0  0  0  0  0  0  0  0  0  0  0
    2.5688   -1.9716    1.0009 H   0  0  0  0  0  0  0  0  0  0  0  0
   -1.9405   -2.5297    2.3868 H   0  0  0  0  0  0  0  0  0  0  0  0
   -0.9344   -3.2607    1.1341 H   0  0  0  0  0  0  0  0  0  0  0  0
   -4.2814   -2.1625    1.9720 H   0  0  0  0  0  0  0  0  0  0  0  0
   -5.9709   -3.0866   -1.8752 H   0  0  0  0  0  0  0  0  0  0  0  0
   -3.7263   -3.5151   -2.7682 H   0  0  0  0  0  0  0  0  0  0  0  0
   -1.2975   -3.5486   -2.4132 H   0  0  0  0  0  0  0  0  0  0  0  0
   -6.7555   -2.6654    1.6679 H   0  0  0  0  0  0  0  0  0  0  0  0
   -7.4507   -2.6875    0.0538 H   0  0  0  0  0  0  0  0  0  0  0  0
   -6.1035   -0.6308    2.7804 H   0  0  0  0  0  0  0  0  0  0  0  0
   -6.2208    1.8229    2.9404 H   0  0  0  0  0  0  0  0  0  0  0  0
   -6.9620    3.1678    0.9977 H   0  0  0  0  0  0  0  0  0  0  0  0
   -7.6032    2.0520   -1.1122 H   0  0  0  0  0  0  0  0  0  0  0  0
   -7.6687   -1.5006   -1.7635 H   0  0  0  0  0  0  0  0  0  0  0  0
   -3.5348    0.6014    2.5236 H   0  0  0  0  0  0  0  0  0  0  0  0
    1.3720   -0.2248   -2.0812 H   0  0  0  0  0  0  0  0  0  0  0  0
    1.5878    1.4902   -1.7176 H   0  0  0  0  0  0  0  0  0  0  0  0
    3.4698   -1.2401   -2.1698 H   0  0  0  0  0  0  0  0  0  0  0  0
    6.5864   -0.2975    0.6487 H   0  0  0  0  0  0  0  0  0  0  0  0
    5.1024    1.2921    1.7736 H   0  0  0  0  0  0  0  0  0  0  0  0
    2.9497    2.4391    1.8690 H   0  0  0  0  0  0  0  0  0  0  0  0
    6.9157   -1.2372   -1.9574 H   0  0  0  0  0  0  0  0  0  0  0  0
    5.5673   -2.2911   -2.4381 H   0  0  0  0  0  0  0  0  0  0  0  0
    8.4349   -1.9120   -0.2007 H   0  0  0  0  0  0  0  0  0  0  0  0
    9.2673   -3.6651    1.3191 H   0  0  0  0  0  0  0  0  0  0  0  0
    7.8931   -5.6819    1.7685 H   0  0  0  0  0  0  0  0  0  0  0  0
    5.6860   -5.9454    0.6890 H   0  0  0  0  0  0  0  0  0  0  0  0
    3.9729   -5.0396   -0.8206 H   0  0  0  0  0  0  0  0  0  0  0  0
   -1.5930    3.7785   -0.7104 H   0  0  0  0  0  0  0  0  0  0  0  0
   -0.3013    4.2123    2.0613 H   0  0  0  0  0  0  0  0  0  0  0  0
   -1.9413    4.7445    1.5068 H   0  0  0  0  0  0  0  0  0  0  0  0
   -1.6771    6.0959   -1.3609 H   0  0  0  0  0  0  0  0  0  0  0  0
   -0.4876    8.1851   -1.9166 H   0  0  0  0  0  0  0  0  0  0  0  0
    1.8979    8.4639   -1.3094 H   0  0  0  0  0  0  0  0  0  0  0  0
    3.0994    6.6403   -0.1320 H   0  0  0  0  0  0  0  0  0  0  0  0
    1.9318    4.5461    0.4358 H   0  0  0  0  0  0  0  0  0  0  0  0
  1  2  1  0
  2  3  1  0
  3  4  2  0
  4  5  1  0
  5  6  1  0
  6  7  2  0
  7  8  1  0
  8  9  2  0
  9 10  1  0
 10 11  2  0
 11 12  1  0
  8 13  1  0
 13 14  1  0
 14 15  2  0
 15 16  1  0
 16 17  2  0
 17 18  1  0
 18 19  2  0
 19 20  1  0
  4 21  1  0
 21 22  1  0
 21 23  2  0
 23 24  1  0
 24 25  2  0
 25 26  1  0
 26 27  1  0
 27 28  2  0
 28 29  1  0
 29 30  2  0
 30 31  1  0
 31 32  2  0
 32 33  1  0
 29 34  1  0
 34 35  1  0
 35 36  2  0
 36 37  1  0
 37 38  2  0
 38 39  1  0
 39 40  2  0
 40 41  1  0
 24 42  1  0
 42 43  1  0
 43 44  1  0
 44 45  1  0
 45 46  2  0
 43 47  1  0
 47 48  2  0
 48 49  1  0
 49 50  2  0
 50 51  1  0
 51 52  2  0
 25  3  1  0
 32 27  1  0
 40 35  1  0
 52 47  1  0
 11  6  1  0
 19 14  1  0
 45 23  1  0
  1 53  1  0
  1 54  1  0
  1 55  1  0
  5 56  1  0
  5 57  1  0
  7 58  1  0
  9 59  1  0
 10 60  1  0
 12 61  1  0
 13 62  1  0
 13 63  1  0
 15 64  1  0
 16 65  1  0
 17 66  1  0
 18 67  1  0
 20 68  1  0
 22 69  1  0
 26 70  1  0
 26 71  1  0
 28 72  1  0
 30 73  1  0
 31 74  1  0
 33 75  1  0
 34 76  1  0
 34 77  1  0
 36 78  1  0
 37 79  1  0
 38 80  1  0
 39 81  1  0
 41 82  1  0
 43 83  1  6
 44 84  1  0
 44 85  1  0
 48 86  1  0
 49 87  1  0
 50 88  1  0
 51 89  1  0
 52 90  1  0
M  END
$$$$
